MODEL 1
REMARK VINA RESULT: -5.559257022      0.000      0.000
REMARK  2 active torsions:
REMARK  status: ('A' for Active; 'I' for Inactive)
REMARK    1  A    between atoms: O1_2  and  C2_3 
REMARK    2  A    between atoms: C5_10  and  C6_11 
ROOT
HETATM    1  C2  UNL     1      50.355  23.919  40.598  1.00  0.00     0.169 A 
HETATM    2  N1  UNL     1      51.625  23.794  40.242  1.00  0.00    -0.344 N 
ATOM      3  H1  UNL     1      52.250  23.226  40.814  1.00  0.00     0.167 HD
HETATM    4  C3  UNL     1      52.111  24.403  39.134  1.00  0.00     0.107 A 
HETATM    5  C4  UNL     1      51.269  25.142  38.403  1.00  0.00     0.105 A 
HETATM    6  N2  UNL     1      49.930  25.287  38.747  1.00  0.00    -0.361 N 
ATOM      7  H2  UNL     1      49.314  25.854  38.164  1.00  0.00     0.165 HD
HETATM    8  C5  UNL     1      49.445  24.685  39.842  1.00  0.00     0.085 A 
ENDROOT
BRANCH   8   9
HETATM    9  C6  UNL     1      48.044  24.654  40.198  1.00  0.00    -0.057 C 
HETATM   10  C7  UNL     1      47.154  23.622  39.558  1.00  0.00     0.045 C 
HETATM   11  C8  UNL     1      47.348  25.888  40.622  1.00  0.00     0.045 C 
ENDBRANCH   8   9
BRANCH   1  12
HETATM   12  O1  UNL     1      49.806  23.306  41.730  1.00  0.00    -0.339 OA
HETATM   13  C1  UNL     1      50.569  22.304  42.354  1.00  0.00     0.211 C 
ENDBRANCH   1  12
TORSDOF 2
ENDMDL
MODEL 2
REMARK VINA RESULT: -5.403718479      1.557      3.741
REMARK  2 active torsions:
REMARK  status: ('A' for Active; 'I' for Inactive)
REMARK    1  A    between atoms: O1_2  and  C2_3 
REMARK    2  A    between atoms: C5_10  and  C6_11 
ROOT
HETATM    1  C2  UNL     1      50.737  24.262  40.147  1.00  0.00     0.169 A 
HETATM    2  N1  UNL     1      49.954  24.918  39.303  1.00  0.00    -0.344 N 
ATOM      3  H1  UNL     1      50.376  25.459  38.548  1.00  0.00     0.167 HD
HETATM    4  C3  UNL     1      48.604  24.884  39.421  1.00  0.00     0.107 A 
HETATM    5  C4  UNL     1      48.079  24.167  40.420  1.00  0.00     0.105 A 
HETATM    6  N2  UNL     1      48.874  23.464  41.318  1.00  0.00    -0.361 N 
ATOM      7  H2  UNL     1      48.440  22.922  42.066  1.00  0.00     0.165 HD
HETATM    8  C5  UNL     1      50.209  23.494  41.204  1.00  0.00     0.085 A 
ENDROOT
BRANCH   8   9
HETATM    9  C6  UNL     1      51.110  22.681  41.992  1.00  0.00    -0.057 C 
HETATM   10  C7  UNL     1      51.710  21.449  41.369  1.00  0.00     0.045 C 
HETATM   11  C8  UNL     1      50.978  22.624  43.464  1.00  0.00     0.045 C 
ENDBRANCH   8   9
BRANCH   1  12
HETATM   12  O1  UNL     1      52.134  24.264  40.064  1.00  0.00    -0.339 OA
HETATM   13  C1  UNL     1      52.707  23.901  38.834  1.00  0.00     0.211 C 
ENDBRANCH   1  12
TORSDOF 2
ENDMDL
MODEL 3
REMARK VINA RESULT: -5.368178579      1.795      3.151
REMARK  2 active torsions:
REMARK  status: ('A' for Active; 'I' for Inactive)
REMARK    1  A    between atoms: O1_2  and  C2_3 
REMARK    2  A    between atoms: C5_10  and  C6_11 
ROOT
HETATM    1  C2  UNL     1      51.053  23.431  40.093  1.00  0.00     0.169 A 
HETATM    2  N1  UNL     1      51.979  22.548  40.436  1.00  0.00    -0.344 N 
ATOM      3  H1  UNL     1      52.846  22.500  39.900  1.00  0.00     0.167 HD
HETATM    4  C3  UNL     1      51.799  21.708  41.484  1.00  0.00     0.107 A 
HETATM    5  C4  UNL     1      50.653  21.792  42.168  1.00  0.00     0.105 A 
HETATM    6  N2  UNL     1      49.665  22.713  41.836  1.00  0.00    -0.361 N 
ATOM      7  H2  UNL     1      48.805  22.754  42.382  1.00  0.00     0.165 HD
HETATM    8  C5  UNL     1      49.839  23.546  40.801  1.00  0.00     0.085 A 
ENDROOT
BRANCH   8   9
HETATM    9  C6  UNL     1      48.942  24.632  40.472  1.00  0.00    -0.057 C 
HETATM   10  C7  UNL     1      48.767  25.754  41.459  1.00  0.00     0.045 C 
HETATM   11  C8  UNL     1      47.778  24.403  39.588  1.00  0.00     0.045 C 
ENDBRANCH   8   9
BRANCH   1  12
HETATM   12  O1  UNL     1      51.194  24.322  39.023  1.00  0.00    -0.339 OA
HETATM   13  C1  UNL     1      52.267  24.107  38.142  1.00  0.00     0.211 C 
ENDBRANCH   1  12
TORSDOF 2
ENDMDL
MODEL 4
REMARK VINA RESULT: -5.351702907      1.660      3.017
REMARK  2 active torsions:
REMARK  status: ('A' for Active; 'I' for Inactive)
REMARK    1  A    between atoms: O1_2  and  C2_3 
REMARK    2  A    between atoms: C5_10  and  C6_11 
ROOT
HETATM    1  C2  UNL     1      50.676  24.299  40.184  1.00  0.00     0.169 A 
HETATM    2  N1  UNL     1      51.686  23.442  40.146  1.00  0.00    -0.344 N 
ATOM      3  H1  UNL     1      52.498  23.653  39.565  1.00  0.00     0.167 HD
HETATM    4  C3  UNL     1      51.662  22.291  40.861  1.00  0.00     0.107 A 
HETATM    5  C4  UNL     1      50.585  22.041  41.613  1.00  0.00     0.105 A 
HETATM    6  N2  UNL     1      49.513  22.924  41.678  1.00  0.00    -0.361 N 
ATOM      7  H2  UNL     1      48.708  22.704  42.266  1.00  0.00     0.165 HD
HETATM    8  C5  UNL     1      49.532  24.063  40.973  1.00  0.00     0.085 A 
ENDROOT
BRANCH   8   9
HETATM    9  C6  UNL     1      48.540  25.108  41.091  1.00  0.00    -0.057 C 
HETATM   10  C7  UNL     1      48.439  25.873  42.383  1.00  0.00     0.045 C 
HETATM   11  C8  UNL     1      47.281  25.040  40.317  1.00  0.00     0.045 C 
ENDBRANCH   8   9
BRANCH   1  12
HETATM   12  O1  UNL     1      50.656  25.501  39.467  1.00  0.00    -0.339 OA
HETATM   13  C1  UNL     1      50.589  25.415  38.066  1.00  0.00     0.211 C 
ENDBRANCH   1  12
TORSDOF 2
ENDMDL
MODEL 5
REMARK VINA RESULT: -5.346719450      0.938      1.014
REMARK  2 active torsions:
REMARK  status: ('A' for Active; 'I' for Inactive)
REMARK    1  A    between atoms: O1_2  and  C2_3 
REMARK    2  A    between atoms: C5_10  and  C6_11 
ROOT
HETATM    1  C2  UNL     1      50.619  23.462  41.018  1.00  0.00     0.169 A 
HETATM    2  N1  UNL     1      51.740  23.010  40.476  1.00  0.00    -0.344 N 
ATOM      3  H1  UNL     1      52.223  22.224  40.911  1.00  0.00     0.167 HD
HETATM    4  C3  UNL     1      52.259  23.571  39.357  1.00  0.00     0.107 A 
HETATM    5  C4  UNL     1      51.606  24.601  38.809  1.00  0.00     0.105 A 
HETATM    6  N2  UNL     1      50.423  25.093  39.351  1.00  0.00    -0.361 N 
ATOM      7  H2  UNL     1      49.947  25.877  38.905  1.00  0.00     0.165 HD
HETATM    8  C5  UNL     1      49.906  24.541  40.457  1.00  0.00     0.085 A 
ENDROOT
BRANCH   8   9
HETATM    9  C6  UNL     1      48.613  24.882  41.006  1.00  0.00    -0.057 C 
HETATM   10  C7  UNL     1      47.411  24.867  40.100  1.00  0.00     0.045 C 
HETATM   11  C8  UNL     1      48.504  25.806  42.156  1.00  0.00     0.045 C 
ENDBRANCH   8   9
BRANCH   1  12
HETATM   12  O1  UNL     1      50.042  22.913  42.170  1.00  0.00    -0.339 OA
HETATM   13  C1  UNL     1      50.876  22.160  43.012  1.00  0.00     0.211 C 
ENDBRANCH   1  12
TORSDOF 2
ENDMDL
MODEL 6
REMARK VINA RESULT: -5.219935354      1.380      3.396
REMARK  2 active torsions:
REMARK  status: ('A' for Active; 'I' for Inactive)
REMARK    1  A    between atoms: O1_2  and  C2_3 
REMARK    2  A    between atoms: C5_10  and  C6_11 
ROOT
HETATM    1  C2  UNL     1      49.416  23.766  40.234  1.00  0.00     0.169 A 
HETATM    2  N1  UNL     1      49.119  24.731  39.375  1.00  0.00    -0.344 N 
ATOM      3  H1  UNL     1      48.141  24.910  39.145  1.00  0.00     0.167 HD
HETATM    4  C3  UNL     1      50.085  25.483  38.796  1.00  0.00     0.107 A 
HETATM    5  C4  UNL     1      51.358  25.226  39.116  1.00  0.00     0.105 A 
HETATM    6  N2  UNL     1      51.701  24.225  40.018  1.00  0.00    -0.361 N 
ATOM      7  H2  UNL     1      52.682  24.058  40.243  1.00  0.00     0.165 HD
HETATM    8  C5  UNL     1      50.748  23.478  40.593  1.00  0.00     0.085 A 
ENDROOT
BRANCH   8   9
HETATM    9  C6  UNL     1      50.993  22.522  41.649  1.00  0.00    -0.057 C 
HETATM   10  C7  UNL     1      50.863  22.969  43.080  1.00  0.00     0.045 C 
HETATM   11  C8  UNL     1      51.927  21.394  41.440  1.00  0.00     0.045 C 
ENDBRANCH   8   9
BRANCH   1  12
HETATM   12  O1  UNL     1      48.454  22.966  40.860  1.00  0.00    -0.339 OA
HETATM   13  C1  UNL     1      47.266  22.713  40.153  1.00  0.00     0.211 C 
ENDBRANCH   1  12
TORSDOF 2
ENDMDL
MODEL 7
REMARK VINA RESULT: -5.183482690      0.424      1.149
REMARK  2 active torsions:
REMARK  status: ('A' for Active; 'I' for Inactive)
REMARK    1  A    between atoms: O1_2  and  C2_3 
REMARK    2  A    between atoms: C5_10  and  C6_11 
ROOT
HETATM    1  C2  UNL     1      50.320  24.079  40.421  1.00  0.00     0.169 A 
HETATM    2  N1  UNL     1      51.594  23.790  40.200  1.00  0.00    -0.344 N 
ATOM      3  H1  UNL     1      52.105  23.232  40.884  1.00  0.00     0.167 HD
HETATM    4  C3  UNL     1      52.231  24.220  39.084  1.00  0.00     0.107 A 
HETATM    5  C4  UNL     1      51.537  24.950  38.206  1.00  0.00     0.105 A 
HETATM    6  N2  UNL     1      50.197  25.265  38.407  1.00  0.00    -0.361 N 
ATOM      7  H2  UNL     1      49.696  25.820  37.714  1.00  0.00     0.165 HD
HETATM    8  C5  UNL     1      49.563  24.841  39.509  1.00  0.00     0.085 A 
ENDROOT
BRANCH   8   9
HETATM    9  C6  UNL     1      48.142  24.988  39.735  1.00  0.00    -0.057 C 
HETATM   10  C7  UNL     1      47.660  26.087  40.643  1.00  0.00     0.045 C 
HETATM   11  C8  UNL     1      47.243  23.815  39.657  1.00  0.00     0.045 C 
ENDBRANCH   8   9
BRANCH   1  12
HETATM   12  O1  UNL     1      49.617  23.655  41.556  1.00  0.00    -0.339 OA
HETATM   13  C1  UNL     1      50.360  23.059  42.588  1.00  0.00     0.211 C 
ENDBRANCH   1  12
TORSDOF 2
ENDMDL
MODEL 8
REMARK VINA RESULT: -4.993362392      1.546      3.850
REMARK  2 active torsions:
REMARK  status: ('A' for Active; 'I' for Inactive)
REMARK    1  A    between atoms: O1_2  and  C2_3 
REMARK    2  A    between atoms: C5_10  and  C6_11 
ROOT
HETATM    1  C2  UNL     1      50.391  24.082  40.296  1.00  0.00     0.169 A 
HETATM    2  N1  UNL     1      49.670  24.826  39.470  1.00  0.00    -0.344 N 
ATOM      3  H1  UNL     1      50.139  25.512  38.878  1.00  0.00     0.167 HD
HETATM    4  C3  UNL     1      48.323  24.696  39.396  1.00  0.00     0.107 A 
HETATM    5  C4  UNL     1      47.735  23.790  40.184  1.00  0.00     0.105 A 
HETATM    6  N2  UNL     1      48.465  22.990  41.056  1.00  0.00    -0.361 N 
ATOM      7  H2  UNL     1      47.985  22.305  41.640  1.00  0.00     0.165 HD
HETATM    8  C5  UNL     1      49.798  23.115  41.133  1.00  0.00     0.085 A 
ENDROOT
BRANCH   8   9
HETATM    9  C6  UNL     1      50.654  22.233  41.893  1.00  0.00    -0.057 C 
HETATM   10  C7  UNL     1      50.964  22.576  43.325  1.00  0.00     0.045 C 
HETATM   11  C8  UNL     1      51.691  21.424  41.216  1.00  0.00     0.045 C 
ENDBRANCH   8   9
BRANCH   1  12
HETATM   12  O1  UNL     1      51.783  24.177  40.405  1.00  0.00    -0.339 OA
HETATM   13  C1  UNL     1      52.520  24.261  39.212  1.00  0.00     0.211 C 
ENDBRANCH   1  12
TORSDOF 2
ENDMDL
MODEL 9
REMARK VINA RESULT: -4.957022014      1.630      2.877
REMARK  2 active torsions:
REMARK  status: ('A' for Active; 'I' for Inactive)
REMARK    1  A    between atoms: O1_2  and  C2_3 
REMARK    2  A    between atoms: C5_10  and  C6_11 
ROOT
HETATM    1  C2  UNL     1      50.576  24.251  40.252  1.00  0.00     0.169 A 
HETATM    2  N1  UNL     1      51.638  23.462  40.169  1.00  0.00    -0.344 N 
ATOM      3  H1  UNL     1      52.426  23.747  39.586  1.00  0.00     0.167 HD
HETATM    4  C3  UNL     1      51.699  22.287  40.841  1.00  0.00     0.107 A 
HETATM    5  C4  UNL     1      50.652  21.940  41.596  1.00  0.00     0.105 A 
HETATM    6  N2  UNL     1      49.526  22.749  41.708  1.00  0.00    -0.361 N 
ATOM      7  H2  UNL     1      48.747  22.456  42.297  1.00  0.00     0.165 HD
HETATM    8  C5  UNL     1      49.462  23.912  41.046  1.00  0.00     0.085 A 
ENDROOT
BRANCH   8   9
HETATM    9  C6  UNL     1      48.406  24.886  41.215  1.00  0.00    -0.057 C 
HETATM   10  C7  UNL     1      47.463  25.142  40.071  1.00  0.00     0.045 C 
HETATM   11  C8  UNL     1      48.579  26.029  42.138  1.00  0.00     0.045 C 
ENDBRANCH   8   9
BRANCH   1  12
HETATM   12  O1  UNL     1      50.468  25.474  39.581  1.00  0.00    -0.339 OA
HETATM   13  C1  UNL     1      50.685  25.470  38.193  1.00  0.00     0.211 C 
ENDBRANCH   1  12
TORSDOF 2
ENDMDL
MODEL 10
REMARK VINA RESULT: -4.944185681      1.638      2.890
REMARK  2 active torsions:
REMARK  status: ('A' for Active; 'I' for Inactive)
REMARK    1  A    between atoms: O1_2  and  C2_3 
REMARK    2  A    between atoms: C5_10  and  C6_11 
ROOT
HETATM    1  C2  UNL     1      49.552  24.114  41.899  1.00  0.00     0.169 A 
HETATM    2  N1  UNL     1      50.080  23.361  42.853  1.00  0.00    -0.344 N 
ATOM      3  H1  UNL     1      49.679  23.391  43.791  1.00  0.00     0.167 HD
HETATM    4  C3  UNL     1      51.138  22.551  42.609  1.00  0.00     0.107 A 
HETATM    5  C4  UNL     1      51.642  22.532  41.371  1.00  0.00     0.105 A 
HETATM    6  N2  UNL     1      51.107  23.307  40.347  1.00  0.00    -0.361 N 
ATOM      7  H2  UNL     1      51.513  23.264  39.412  1.00  0.00     0.165 HD
HETATM    8  C5  UNL     1      50.059  24.108  40.584  1.00  0.00     0.085 A 
ENDROOT
BRANCH   8   9
HETATM    9  C6  UNL     1      49.343  24.832  39.558  1.00  0.00    -0.057 C 
HETATM   10  C7  UNL     1      47.931  24.425  39.232  1.00  0.00     0.045 C 
HETATM   11  C8  UNL     1      50.072  25.472  38.441  1.00  0.00     0.045 C 
ENDBRANCH   8   9
BRANCH   1  12
HETATM   12  O1  UNL     1      48.457  24.962  42.101  1.00  0.00    -0.339 OA
HETATM   13  C1  UNL     1      48.643  26.064  42.951  1.00  0.00     0.211 C 
ENDBRANCH   1  12
TORSDOF 2
ENDMDL
MODEL 11
REMARK VINA RESULT: -4.768378220      1.659      3.744
REMARK  2 active torsions:
REMARK  status: ('A' for Active; 'I' for Inactive)
REMARK    1  A    between atoms: O1_2  and  C2_3 
REMARK    2  A    between atoms: C5_10  and  C6_11 
ROOT
HETATM    1  C2  UNL     1      49.930  23.507  40.459  1.00  0.00     0.169 A 
HETATM    2  N1  UNL     1      49.592  22.750  41.493  1.00  0.00    -0.344 N 
ATOM      3  H1  UNL     1      48.641  22.801  41.859  1.00  0.00     0.167 HD
HETATM    4  C3  UNL     1      50.482  21.910  42.073  1.00  0.00     0.107 A 
HETATM    5  C4  UNL     1      51.721  21.865  41.573  1.00  0.00     0.105 A 
HETATM    6  N2  UNL     1      52.104  22.642  40.486  1.00  0.00    -0.361 N 
ATOM      7  H2  UNL     1      53.057  22.580  40.126  1.00  0.00     0.165 HD
HETATM    8  C5  UNL     1      51.226  23.474  39.908  1.00  0.00     0.085 A 
ENDROOT
BRANCH   8   9
HETATM    9  C6  UNL     1      51.483  24.207  38.688  1.00  0.00    -0.057 C 
HETATM   10  C7  UNL     1      52.556  23.712  37.755  1.00  0.00     0.045 C 
HETATM   11  C8  UNL     1      51.232  25.663  38.619  1.00  0.00     0.045 C 
ENDBRANCH   8   9
BRANCH   1  12
HETATM   12  O1  UNL     1      49.045  24.386  39.824  1.00  0.00    -0.339 OA
HETATM   13  C1  UNL     1      47.693  24.008  39.762  1.00  0.00     0.211 C 
ENDBRANCH   1  12
TORSDOF 2
ENDMDL
MODEL 12
REMARK VINA RESULT: -4.711600698      1.396      3.516
REMARK  2 active torsions:
REMARK  status: ('A' for Active; 'I' for Inactive)
REMARK    1  A    between atoms: O1_2  and  C2_3 
REMARK    2  A    between atoms: C5_10  and  C6_11 
ROOT
HETATM    1  C2  UNL     1      50.114  23.103  40.396  1.00  0.00     0.169 A 
HETATM    2  N1  UNL     1      48.927  23.332  40.941  1.00  0.00    -0.344 N 
ATOM      3  H1  UNL     1      48.557  22.672  41.625  1.00  0.00     0.167 HD
HETATM    4  C3  UNL     1      48.197  24.424  40.608  1.00  0.00     0.107 A 
HETATM    5  C4  UNL     1      48.708  25.271  39.709  1.00  0.00     0.105 A 
HETATM    6  N2  UNL     1      49.952  25.061  39.124  1.00  0.00    -0.361 N 
ATOM      7  H2  UNL     1      50.315  25.730  38.445  1.00  0.00     0.165 HD
HETATM    8  C5  UNL     1      50.678  23.982  39.451  1.00  0.00     0.085 A 
ENDROOT
BRANCH   8   9
HETATM    9  C6  UNL     1      52.038  23.756  39.014  1.00  0.00    -0.057 C 
HETATM   10  C7  UNL     1      53.169  24.288  39.852  1.00  0.00     0.045 C 
HETATM   11  C8  UNL     1      52.352  23.617  37.575  1.00  0.00     0.045 C 
ENDBRANCH   8   9
BRANCH   1  12
HETATM   12  O1  UNL     1      50.906  21.992  40.710  1.00  0.00    -0.339 OA
HETATM   13  C1  UNL     1      51.162  21.746  42.069  1.00  0.00     0.211 C 
ENDBRANCH   1  12
TORSDOF 2
ENDMDL
MODEL 13
REMARK VINA RESULT: -4.691299564      1.781      3.021
REMARK  2 active torsions:
REMARK  status: ('A' for Active; 'I' for Inactive)
REMARK    1  A    between atoms: O1_2  and  C2_3 
REMARK    2  A    between atoms: C5_10  and  C6_11 
ROOT
HETATM    1  C2  UNL     1      49.506  24.032  41.946  1.00  0.00     0.169 A 
HETATM    2  N1  UNL     1      50.090  23.466  42.992  1.00  0.00    -0.344 N 
ATOM      3  H1  UNL     1      49.794  23.730  43.932  1.00  0.00     0.167 HD
HETATM    4  C3  UNL     1      51.071  22.544  42.840  1.00  0.00     0.107 A 
HETATM    5  C4  UNL     1      51.439  22.217  41.597  1.00  0.00     0.105 A 
HETATM    6  N2  UNL     1      50.841  22.789  40.479  1.00  0.00    -0.361 N 
ATOM      7  H2  UNL     1      51.142  22.514  39.544  1.00  0.00     0.165 HD
HETATM    8  C5  UNL     1      49.869  23.701  40.625  1.00  0.00     0.085 A 
ENDROOT
BRANCH   8   9
HETATM    9  C6  UNL     1      49.089  24.238  39.533  1.00  0.00    -0.057 C 
HETATM   10  C7  UNL     1      49.568  25.485  38.840  1.00  0.00     0.045 C 
HETATM   11  C8  UNL     1      47.625  24.032  39.482  1.00  0.00     0.045 C 
ENDBRANCH   8   9
BRANCH   1  12
HETATM   12  O1  UNL     1      48.487  24.986  42.053  1.00  0.00    -0.339 OA
HETATM   13  C1  UNL     1      48.685  26.044  42.954  1.00  0.00     0.211 C 
ENDBRANCH   1  12
TORSDOF 2
ENDMDL
MODEL 14
REMARK VINA RESULT: -4.664068629      1.755      3.437
REMARK  2 active torsions:
REMARK  status: ('A' for Active; 'I' for Inactive)
REMARK    1  A    between atoms: O1_2  and  C2_3 
REMARK    2  A    between atoms: C5_10  and  C6_11 
ROOT
HETATM    1  C2  UNL     1      50.126  23.732  41.840  1.00  0.00     0.169 A 
HETATM    2  N1  UNL     1      49.258  24.561  42.403  1.00  0.00    -0.344 N 
ATOM      3  H1  UNL     1      49.133  24.539  43.415  1.00  0.00     0.167 HD
HETATM    4  C3  UNL     1      48.536  25.436  41.663  1.00  0.00     0.107 A 
HETATM    5  C4  UNL     1      48.720  25.441  40.339  1.00  0.00     0.105 A 
HETATM    6  N2  UNL     1      49.627  24.588  39.719  1.00  0.00    -0.361 N 
ATOM      7  H2  UNL     1      49.747  24.622  38.707  1.00  0.00     0.165 HD
HETATM    8  C5  UNL     1      50.345  23.722  40.448  1.00  0.00     0.085 A 
ENDROOT
BRANCH   8   9
HETATM    9  C6  UNL     1      51.413  22.905  39.917  1.00  0.00    -0.057 C 
HETATM   10  C7  UNL     1      52.489  23.560  39.094  1.00  0.00     0.045 C 
HETATM   11  C8  UNL     1      51.184  21.477  39.605  1.00  0.00     0.045 C 
ENDBRANCH   8   9
BRANCH   1  12
HETATM   12  O1  UNL     1      50.897  22.814  42.562  1.00  0.00    -0.339 OA
HETATM   13  C1  UNL     1      50.693  22.751  43.950  1.00  0.00     0.211 C 
ENDBRANCH   1  12
TORSDOF 2
ENDMDL
MODEL 15
REMARK VINA RESULT: -4.600859018      1.604      2.325
REMARK  2 active torsions:
REMARK  status: ('A' for Active; 'I' for Inactive)
REMARK    1  A    between atoms: O1_2  and  C2_3 
REMARK    2  A    between atoms: C5_10  and  C6_11 
ROOT
HETATM    1  C2  UNL     1      49.250  23.008  40.694  1.00  0.00     0.169 A 
HETATM    2  N1  UNL     1      50.132  22.139  40.222  1.00  0.00    -0.344 N 
ATOM      3  H1  UNL     1      49.849  21.171  40.074  1.00  0.00     0.167 HD
HETATM    4  C3  UNL     1      51.402  22.511  39.931  1.00  0.00     0.107 A 
HETATM    5  C4  UNL     1      51.746  23.787  40.135  1.00  0.00     0.105 A 
HETATM    6  N2  UNL     1      50.841  24.723  40.624  1.00  0.00    -0.361 N 
ATOM      7  H2  UNL     1      51.135  25.690  40.763  1.00  0.00     0.165 HD
HETATM    8  C5  UNL     1      49.584  24.360  40.912  1.00  0.00     0.085 A 
ENDROOT
BRANCH   8   9
HETATM    9  C6  UNL     1      48.535  25.286  41.279  1.00  0.00    -0.057 C 
HETATM   10  C7  UNL     1      47.838  26.062  40.194  1.00  0.00     0.045 C 
HETATM   11  C8  UNL     1      48.549  25.952  42.600  1.00  0.00     0.045 C 
ENDBRANCH   8   9
BRANCH   1  12
HETATM   12  O1  UNL     1      47.927  22.673  41.004  1.00  0.00    -0.339 OA
HETATM   13  C1  UNL     1      47.053  22.434  39.931  1.00  0.00     0.211 C 
ENDBRANCH   1  12
TORSDOF 2
ENDMDL
MODEL 16
REMARK VINA RESULT: -4.510967767      2.219      4.222
REMARK  2 active torsions:
REMARK  status: ('A' for Active; 'I' for Inactive)
REMARK    1  A    between atoms: O1_2  and  C2_3 
REMARK    2  A    between atoms: C5_10  and  C6_11 
ROOT
HETATM    1  C2  UNL     1      47.537  24.934  40.475  1.00  0.00     0.169 A 
HETATM    2  N1  UNL     1      46.447  25.528  40.938  1.00  0.00    -0.344 N 
ATOM      3  H1  UNL     1      45.548  25.338  40.495  1.00  0.00     0.167 HD
HETATM    4  C3  UNL     1      46.502  26.382  41.988  1.00  0.00     0.107 A 
HETATM    5  C4  UNL     1      47.693  26.613  42.549  1.00  0.00     0.105 A 
HETATM    6  N2  UNL     1      48.854  26.000  42.089  1.00  0.00    -0.361 N 
ATOM      7  H2  UNL     1      49.746  26.195  42.544  1.00  0.00     0.165 HD
HETATM    8  C5  UNL     1      48.804  25.154  41.051  1.00  0.00     0.085 A 
ENDROOT
BRANCH   8   9
HETATM    9  C6  UNL     1      49.923  24.358  40.599  1.00  0.00    -0.057 C 
HETATM   10  C7  UNL     1      50.496  23.317  41.523  1.00  0.00     0.045 C 
HETATM   11  C8  UNL     1      50.884  24.902  39.615  1.00  0.00     0.045 C 
ENDBRANCH   8   9
BRANCH   1  12
HETATM   12  O1  UNL     1      47.531  24.041  39.396  1.00  0.00    -0.339 OA
HETATM   13  C1  UNL     1      46.876  22.812  39.579  1.00  0.00     0.211 C 
ENDBRANCH   1  12
TORSDOF 2
ENDMDL
MODEL 17
REMARK VINA RESULT: -4.509355701      2.431      4.352
REMARK  2 active torsions:
REMARK  status: ('A' for Active; 'I' for Inactive)
REMARK    1  A    between atoms: O1_2  and  C2_3 
REMARK    2  A    between atoms: C5_10  and  C6_11 
ROOT
HETATM    1  C2  UNL     1      50.431  23.434  41.976  1.00  0.00     0.169 A 
HETATM    2  N1  UNL     1      50.162  23.415  43.273  1.00  0.00    -0.344 N 
ATOM      3  H1  UNL     1      49.533  24.118  43.662  1.00  0.00     0.167 HD
HETATM    4  C3  UNL     1      50.703  22.482  44.092  1.00  0.00     0.107 A 
HETATM    5  C4  UNL     1      51.523  21.573  43.555  1.00  0.00     0.105 A 
HETATM    6  N2  UNL     1      51.820  21.563  42.196  1.00  0.00    -0.361 N 
ATOM      7  H2  UNL     1      52.446  20.852  41.818  1.00  0.00     0.165 HD
HETATM    8  C5  UNL     1      51.286  22.484  41.382  1.00  0.00     0.085 A 
ENDROOT
BRANCH   8   9
HETATM    9  C6  UNL     1      51.414  22.466  39.942  1.00  0.00    -0.057 C 
HETATM   10  C7  UNL     1      50.830  21.311  39.174  1.00  0.00     0.045 C 
HETATM   11  C8  UNL     1      52.561  23.126  39.280  1.00  0.00     0.045 C 
ENDBRANCH   8   9
BRANCH   1  12
HETATM   12  O1  UNL     1      49.894  24.374  41.089  1.00  0.00    -0.339 OA
HETATM   13  C1  UNL     1      48.808  25.142  41.543  1.00  0.00     0.211 C 
ENDBRANCH   1  12
TORSDOF 2
ENDMDL
MODEL 18
REMARK VINA RESULT: -4.453033542      2.169      4.037
REMARK  2 active torsions:
REMARK  status: ('A' for Active; 'I' for Inactive)
REMARK    1  A    between atoms: O1_2  and  C2_3 
REMARK    2  A    between atoms: C5_10  and  C6_11 
ROOT
HETATM    1  C2  UNL     1      48.769  25.404  40.145  1.00  0.00     0.169 A 
HETATM    2  N1  UNL     1      47.960  26.438  40.329  1.00  0.00    -0.344 N 
ATOM      3  H1  UNL     1      47.620  26.956  39.518  1.00  0.00     0.167 HD
HETATM    4  C3  UNL     1      47.576  26.821  41.570  1.00  0.00     0.107 A 
HETATM    5  C4  UNL     1      48.038  26.124  42.614  1.00  0.00     0.105 A 
HETATM    6  N2  UNL     1      48.882  25.031  42.452  1.00  0.00    -0.361 N 
ATOM      7  H2  UNL     1      49.212  24.518  43.270  1.00  0.00     0.165 HD
HETATM    8  C5  UNL     1      49.264  24.649  41.226  1.00  0.00     0.085 A 
ENDROOT
BRANCH   8   9
HETATM    9  C6  UNL     1      50.014  23.444  40.947  1.00  0.00    -0.057 C 
HETATM   10  C7  UNL     1      49.265  22.186  40.597  1.00  0.00     0.045 C 
HETATM   11  C8  UNL     1      51.334  23.218  41.574  1.00  0.00     0.045 C 
ENDBRANCH   8   9
BRANCH   1  12
HETATM   12  O1  UNL     1      49.190  24.969  38.882  1.00  0.00    -0.339 OA
HETATM   13  C1  UNL     1      50.332  25.579  38.338  1.00  0.00     0.211 C 
ENDBRANCH   1  12
TORSDOF 2
ENDMDL
MODEL 19
REMARK VINA RESULT: -4.320580966      2.044      4.049
REMARK  2 active torsions:
REMARK  status: ('A' for Active; 'I' for Inactive)
REMARK    1  A    between atoms: O1_2  and  C2_3 
REMARK    2  A    between atoms: C5_10  and  C6_11 
ROOT
HETATM    1  C2  UNL     1      48.529  24.865  41.029  1.00  0.00     0.169 A 
HETATM    2  N1  UNL     1      47.353  25.038  40.445  1.00  0.00    -0.344 N 
ATOM      3  H1  UNL     1      46.921  25.963  40.457  1.00  0.00     0.167 HD
HETATM    4  C3  UNL     1      46.711  24.014  39.832  1.00  0.00     0.107 A 
HETATM    5  C4  UNL     1      47.301  22.814  39.832  1.00  0.00     0.105 A 
HETATM    6  N2  UNL     1      48.538  22.602  40.431  1.00  0.00    -0.361 N 
ATOM      7  H2  UNL     1      48.962  21.675  40.408  1.00  0.00     0.165 HD
HETATM    8  C5  UNL     1      49.176  23.613  41.038  1.00  0.00     0.085 A 
ENDROOT
BRANCH   8   9
HETATM    9  C6  UNL     1      50.524  23.528  41.554  1.00  0.00    -0.057 C 
HETATM   10  C7  UNL     1      51.676  23.562  40.587  1.00  0.00     0.045 C 
HETATM   11  C8  UNL     1      50.802  22.810  42.817  1.00  0.00     0.045 C 
ENDBRANCH   8   9
BRANCH   1  12
HETATM   12  O1  UNL     1      49.232  25.892  41.671  1.00  0.00    -0.339 OA
HETATM   13  C1  UNL     1      48.488  26.791  42.453  1.00  0.00     0.211 C 
ENDBRANCH   1  12
TORSDOF 2
ENDMDL
MODEL 20
REMARK VINA RESULT: -4.303024478      2.479      3.105
REMARK  2 active torsions:
REMARK  status: ('A' for Active; 'I' for Inactive)
REMARK    1  A    between atoms: O1_2  and  C2_3 
REMARK    2  A    between atoms: C5_10  and  C6_11 
ROOT
HETATM    1  C2  UNL     1      48.765  24.125  41.610  1.00  0.00     0.169 A 
HETATM    2  N1  UNL     1      48.816  23.079  40.799  1.00  0.00    -0.344 N 
ATOM      3  H1  UNL     1      49.485  22.332  40.989  1.00  0.00     0.167 HD
HETATM    4  C3  UNL     1      47.998  22.979  39.723  1.00  0.00     0.107 A 
HETATM    5  C4  UNL     1      47.132  23.973  39.499  1.00  0.00     0.105 A 
HETATM    6  N2  UNL     1      47.050  25.081  40.335  1.00  0.00    -0.361 N 
ATOM      7  H2  UNL     1      46.374  25.818  40.138  1.00  0.00     0.165 HD
HETATM    8  C5  UNL     1      47.857  25.182  41.401  1.00  0.00     0.085 A 
ENDROOT
BRANCH   8   9
HETATM    9  C6  UNL     1      47.746  26.215  42.407  1.00  0.00    -0.057 C 
HETATM   10  C7  UNL     1      46.386  26.553  42.955  1.00  0.00     0.045 C 
HETATM   11  C8  UNL     1      48.722  27.325  42.456  1.00  0.00     0.045 C 
ENDBRANCH   8   9
BRANCH   1  12
HETATM   12  O1  UNL     1      49.585  24.271  42.735  1.00  0.00    -0.339 OA
HETATM   13  C1  UNL     1      50.540  23.268  42.971  1.00  0.00     0.211 C 
ENDBRANCH   1  12
TORSDOF 2
ENDMDL
