MODEL 1
REMARK VINA RESULT: -8.133517762      0.000      0.000
REMARK  7 active torsions:
REMARK  status: ('A' for Active; 'I' for Inactive)
REMARK    1  A    between atoms: C2_2  and  O1_4 
REMARK    2  A    between atoms: O1_4  and  C4_5 
REMARK    3  A    between atoms: C4_5  and  C5_7 
REMARK    4  A    between atoms: C9_11  and  C10_12 
REMARK    5  A    between atoms: C11_14  and  O3_15 
REMARK    6  A    between atoms: C12_17  and  O4_18 
REMARK    7  A    between atoms: C15_22  and  O5_23 
ROOT
HETATM    1  C5  UNL     1       9.275  -2.092   7.151  1.00  0.00     0.073 A 
HETATM    2  C6  UNL     1       7.960  -1.732   7.468  1.00  0.00     0.032 A 
HETATM    3  C7  UNL     1       7.620  -1.017   8.589  1.00  0.00    -0.021 A 
HETATM    4  C8  UNL     1       6.295  -0.681   8.861  1.00  0.00     0.023 A 
HETATM    5  C9  UNL     1       5.929   0.034   9.977  1.00  0.00    -0.008 A 
HETATM    6  C11 UNL     1       6.926   0.420  10.838  1.00  0.00     0.107 A 
HETATM    7  C12 UNL     1       8.264   0.091  10.580  1.00  0.00     0.110 A 
HETATM    8  C13 UNL     1       8.626  -0.629   9.455  1.00  0.00     0.013 A 
HETATM    9  C14 UNL     1       9.919  -0.967   9.174  1.00  0.00     0.052 A 
HETATM   10  C15 UNL     1      10.252  -1.709   8.004  1.00  0.00     0.083 A 
ENDROOT
BRANCH   1  11
HETATM   11  C4  UNL     1       9.503  -2.842   5.947  1.00  0.00     0.296 C 
HETATM   12  O2  UNL     1       9.135  -2.531   4.800  1.00  0.00    -0.259 OA
BRANCH  11  13
HETATM   13  O1  UNL     1      10.212  -4.067   5.989  1.00  0.00    -0.313 OA
BRANCH  13  14
HETATM   14  C2  UNL     1       9.878  -5.114   6.843  1.00  0.00     0.124 C 
HETATM   15  C1  UNL     1       9.470  -6.372   6.108  1.00  0.00     0.040 C 
HETATM   16  C3  UNL     1      11.092  -5.432   7.691  1.00  0.00     0.040 C 
ENDBRANCH  13  14
ENDBRANCH  11  13
ENDBRANCH   1  11
BRANCH  10  17
HETATM   17  O5  UNL     1      11.572  -1.994   7.816  1.00  0.00    -0.360 OA
ATOM     18  H5  UNL     1      12.092  -2.506   8.425  1.00  0.00     0.217 HD
ENDBRANCH  10  17
BRANCH   5  19
HETATM   19  C10 UNL     1       4.522   0.402  10.285  1.00  0.00     0.156 C 
HETATM   20 CL1  UNL     1       4.185   0.270  12.010  1.00  0.00    -0.125 Cl
ENDBRANCH   5  19
BRANCH   7  21
HETATM   21  O4  UNL     1       9.213   0.497  11.465  1.00  0.00    -0.357 OA
ATOM     22  H4  UNL     1       9.837  -0.144  11.787  1.00  0.00     0.217 HD
ENDBRANCH   7  21
BRANCH   6  23
HETATM   23  O3  UNL     1       6.578   1.149  11.980  1.00  0.00    -0.357 OA
ATOM     24  H3  UNL     1       7.273   1.489  12.531  1.00  0.00     0.217 HD
ENDBRANCH   6  23
TORSDOF 7
ENDMDL
MODEL 2
REMARK VINA RESULT: -7.689651566      1.373      2.449
REMARK  7 active torsions:
REMARK  status: ('A' for Active; 'I' for Inactive)
REMARK    1  A    between atoms: C2_2  and  O1_4 
REMARK    2  A    between atoms: O1_4  and  C4_5 
REMARK    3  A    between atoms: C4_5  and  C5_7 
REMARK    4  A    between atoms: C9_11  and  C10_12 
REMARK    5  A    between atoms: C11_14  and  O3_15 
REMARK    6  A    between atoms: C12_17  and  O4_18 
REMARK    7  A    between atoms: C15_22  and  O5_23 
ROOT
HETATM    1  C5  UNL     1       9.062  -1.893   7.143  1.00  0.00     0.073 A 
HETATM    2  C6  UNL     1       7.757  -1.541   7.510  1.00  0.00     0.032 A 
HETATM    3  C7  UNL     1       7.449  -0.899   8.683  1.00  0.00    -0.021 A 
HETATM    4  C8  UNL     1       6.133  -0.569   9.005  1.00  0.00     0.023 A 
HETATM    5  C9  UNL     1       5.798   0.074  10.173  1.00  0.00    -0.008 A 
HETATM    6  C11 UNL     1       6.817   0.391  11.037  1.00  0.00     0.107 A 
HETATM    7  C12 UNL     1       8.146   0.068  10.730  1.00  0.00     0.110 A 
HETATM    8  C13 UNL     1       8.477  -0.580   9.552  1.00  0.00     0.013 A 
HETATM    9  C14 UNL     1       9.760  -0.911   9.221  1.00  0.00     0.052 A 
HETATM   10  C15 UNL     1      10.060  -1.577   7.998  1.00  0.00     0.083 A 
ENDROOT
BRANCH   1  11
HETATM   11  C4  UNL     1       9.257  -2.563   5.887  1.00  0.00     0.296 C 
HETATM   12  O2  UNL     1      10.182  -3.347   5.603  1.00  0.00    -0.259 OA
BRANCH  11  13
HETATM   13  O1  UNL     1       8.350  -2.365   4.819  1.00  0.00    -0.313 OA
BRANCH  13  14
HETATM   14  C2  UNL     1       8.378  -1.247   3.991  1.00  0.00     0.124 C 
HETATM   15  C1  UNL     1       8.561  -1.595   2.530  1.00  0.00     0.040 C 
HETATM   16  C3  UNL     1       7.060  -0.517   4.144  1.00  0.00     0.040 C 
ENDBRANCH  13  14
ENDBRANCH  11  13
ENDBRANCH   1  11
BRANCH  10  17
HETATM   17  O5  UNL     1      11.373  -1.862   7.764  1.00  0.00    -0.360 OA
ATOM     18  H5  UNL     1      11.917  -2.364   8.359  1.00  0.00     0.217 HD
ENDBRANCH  10  17
BRANCH   5  19
HETATM   19  C10 UNL     1       4.402   0.435  10.534  1.00  0.00     0.156 C 
HETATM   20 CL1  UNL     1       4.143   0.340  12.275  1.00  0.00    -0.125 Cl
ENDBRANCH   5  19
BRANCH   7  21
HETATM   21  O4  UNL     1       9.117   0.404  11.619  1.00  0.00    -0.357 OA
ATOM     22  H4  UNL     1       9.658  -0.287  11.983  1.00  0.00     0.217 HD
ENDBRANCH   7  21
BRANCH   6  23
HETATM   23  O3  UNL     1       6.501   1.047  12.232  1.00  0.00    -0.357 OA
ATOM     24  H3  UNL     1       5.599   1.300  12.386  1.00  0.00     0.217 HD
ENDBRANCH   6  23
TORSDOF 7
ENDMDL
MODEL 3
REMARK VINA RESULT: -6.351755113      1.020      1.087
REMARK  7 active torsions:
REMARK  status: ('A' for Active; 'I' for Inactive)
REMARK    1  A    between atoms: C2_2  and  O1_4 
REMARK    2  A    between atoms: O1_4  and  C4_5 
REMARK    3  A    between atoms: C4_5  and  C5_7 
REMARK    4  A    between atoms: C9_11  and  C10_12 
REMARK    5  A    between atoms: C11_14  and  O3_15 
REMARK    6  A    between atoms: C12_17  and  O4_18 
REMARK    7  A    between atoms: C15_22  and  O5_23 
ROOT
HETATM    1  C5  UNL     1       9.056  -1.587   7.892  1.00  0.00     0.073 A 
HETATM    2  C6  UNL     1       7.725  -1.340   8.249  1.00  0.00     0.032 A 
HETATM    3  C7  UNL     1       7.359  -0.687   9.399  1.00  0.00    -0.021 A 
HETATM    4  C8  UNL     1       6.018  -0.464   9.712  1.00  0.00     0.023 A 
HETATM    5  C9  UNL     1       5.626   0.187  10.858  1.00  0.00    -0.008 A 
HETATM    6  C11 UNL     1       6.611   0.623  11.708  1.00  0.00     0.107 A 
HETATM    7  C12 UNL     1       7.964   0.408  11.410  1.00  0.00     0.110 A 
HETATM    8  C13 UNL     1       8.353  -0.248  10.255  1.00  0.00     0.013 A 
HETATM    9  C14 UNL     1       9.661  -0.475   9.934  1.00  0.00     0.052 A 
HETATM   10  C15 UNL     1      10.021  -1.155   8.734  1.00  0.00     0.083 A 
ENDROOT
BRANCH   1  11
HETATM   11  C4  UNL     1       9.312  -2.281   6.660  1.00  0.00     0.296 C 
HETATM   12  O2  UNL     1       8.745  -2.086   5.569  1.00  0.00    -0.259 OA
BRANCH  11  13
HETATM   13  O1  UNL     1      10.291  -3.301   6.602  1.00  0.00    -0.313 OA
BRANCH  13  14
HETATM   14  C2  UNL     1       9.981  -4.653   6.502  1.00  0.00     0.124 C 
HETATM   15  C1  UNL     1       9.764  -5.109   5.075  1.00  0.00     0.040 C 
HETATM   16  C3  UNL     1      11.136  -5.443   7.082  1.00  0.00     0.040 C 
ENDBRANCH  13  14
ENDBRANCH  11  13
ENDBRANCH   1  11
BRANCH  10  17
HETATM   17  O5  UNL     1      11.354  -1.330   8.508  1.00  0.00    -0.360 OA
ATOM     18  H5  UNL     1      11.744  -1.334   7.641  1.00  0.00     0.217 HD
ENDBRANCH  10  17
BRANCH   5  19
HETATM   19  C10 UNL     1       4.202   0.435  11.208  1.00  0.00     0.156 C 
HETATM   20 CL1  UNL     1       3.274   0.946   9.799  1.00  0.00    -0.125 Cl
ENDBRANCH   5  19
BRANCH   7  21
HETATM   21  O4  UNL     1       8.900   0.860  12.285  1.00  0.00    -0.357 OA
ATOM     22  H4  UNL     1       9.734   0.406  12.332  1.00  0.00     0.217 HD
ENDBRANCH   7  21
BRANCH   6  23
HETATM   23  O3  UNL     1       6.237   1.289  12.880  1.00  0.00    -0.357 OA
ATOM     24  H3  UNL     1       6.608   2.146  13.054  1.00  0.00     0.217 HD
ENDBRANCH   6  23
TORSDOF 7
ENDMDL
MODEL 4
REMARK VINA RESULT: -6.092499912      1.803      2.892
REMARK  7 active torsions:
REMARK  status: ('A' for Active; 'I' for Inactive)
REMARK    1  A    between atoms: C2_2  and  O1_4 
REMARK    2  A    between atoms: O1_4  and  C4_5 
REMARK    3  A    between atoms: C4_5  and  C5_7 
REMARK    4  A    between atoms: C9_11  and  C10_12 
REMARK    5  A    between atoms: C11_14  and  O3_15 
REMARK    6  A    between atoms: C12_17  and  O4_18 
REMARK    7  A    between atoms: C15_22  and  O5_23 
ROOT
HETATM    1  C5  UNL     1       8.211  -1.591   7.118  1.00  0.00     0.073 A 
HETATM    2  C6  UNL     1       8.857  -1.203   8.298  1.00  0.00     0.032 A 
HETATM    3  C7  UNL     1       8.203  -0.658   9.374  1.00  0.00    -0.021 A 
HETATM    4  C8  UNL     1       8.892  -0.288  10.529  1.00  0.00     0.023 A 
HETATM    5  C9  UNL     1       8.260   0.260  11.621  1.00  0.00    -0.008 A 
HETATM    6  C11 UNL     1       6.901   0.437  11.544  1.00  0.00     0.107 A 
HETATM    7  C12 UNL     1       6.193   0.070  10.392  1.00  0.00     0.110 A 
HETATM    8  C13 UNL     1       6.834  -0.481   9.296  1.00  0.00     0.013 A 
HETATM    9  C14 UNL     1       6.175  -0.849   8.157  1.00  0.00     0.052 A 
HETATM   10  C15 UNL     1       6.872  -1.414   7.050  1.00  0.00     0.083 A 
ENDROOT
BRANCH   1  11
HETATM   11  C4  UNL     1       9.005  -2.150   6.060  1.00  0.00     0.296 C 
HETATM   12  O2  UNL     1       8.832  -1.986   4.838  1.00  0.00    -0.259 OA
BRANCH  11  13
HETATM   13  O1  UNL     1      10.113  -2.979   6.356  1.00  0.00    -0.313 OA
BRANCH  13  14
HETATM   14  C2  UNL     1       9.990  -4.313   6.732  1.00  0.00     0.124 C 
HETATM   15  C1  UNL     1       9.810  -5.247   5.556  1.00  0.00     0.040 C 
HETATM   16  C3  UNL     1      11.254  -4.712   7.466  1.00  0.00     0.040 C 
ENDBRANCH  13  14
ENDBRANCH  11  13
ENDBRANCH   1  11
BRANCH  10  17
HETATM   17  O5  UNL     1       6.121  -1.748   5.962  1.00  0.00    -0.360 OA
ATOM     18  H5  UNL     1       5.409  -2.376   5.987  1.00  0.00     0.217 HD
ENDBRANCH  10  17
BRANCH   5  19
HETATM   19  C10 UNL     1       8.976   0.661  12.861  1.00  0.00     0.156 C 
HETATM   20 CL1  UNL     1       9.354   2.383  12.856  1.00  0.00    -0.125 Cl
ENDBRANCH   5  19
BRANCH   7  21
HETATM   21  O4  UNL     1       4.848   0.266  10.367  1.00  0.00    -0.357 OA
ATOM     22  H4  UNL     1       4.400   0.234   9.530  1.00  0.00     0.217 HD
ENDBRANCH   7  21
BRANCH   6  23
HETATM   23  O3  UNL     1       6.236   0.992  12.643  1.00  0.00    -0.357 OA
ATOM     24  H3  UNL     1       5.894   1.875  12.569  1.00  0.00     0.217 HD
ENDBRANCH   6  23
TORSDOF 7
ENDMDL
MODEL 5
REMARK VINA RESULT: -5.580370438      1.882      2.973
REMARK  7 active torsions:
REMARK  status: ('A' for Active; 'I' for Inactive)
REMARK    1  A    between atoms: C2_2  and  O1_4 
REMARK    2  A    between atoms: O1_4  and  C4_5 
REMARK    3  A    between atoms: C4_5  and  C5_7 
REMARK    4  A    between atoms: C9_11  and  C10_12 
REMARK    5  A    between atoms: C11_14  and  O3_15 
REMARK    6  A    between atoms: C12_17  and  O4_18 
REMARK    7  A    between atoms: C15_22  and  O5_23 
ROOT
HETATM    1  C5  UNL     1       9.116  -1.750   7.885  1.00  0.00     0.073 A 
HETATM    2  C6  UNL     1       9.442  -1.172   9.118  1.00  0.00     0.032 A 
HETATM    3  C7  UNL     1       8.526  -0.552   9.929  1.00  0.00    -0.021 A 
HETATM    4  C8  UNL     1       8.901   0.009  11.149  1.00  0.00     0.023 A 
HETATM    5  C9  UNL     1       8.002   0.636  11.980  1.00  0.00    -0.008 A 
HETATM    6  C11 UNL     1       6.694   0.697  11.568  1.00  0.00     0.107 A 
HETATM    7  C12 UNL     1       6.299   0.138  10.345  1.00  0.00     0.110 A 
HETATM    8  C13 UNL     1       7.209  -0.492   9.512  1.00  0.00     0.013 A 
HETATM    9  C14 UNL     1       6.859  -1.046   8.314  1.00  0.00     0.052 A 
HETATM   10  C15 UNL     1       7.826  -1.686   7.486  1.00  0.00     0.083 A 
ENDROOT
BRANCH   1  11
HETATM   11  C4  UNL     1      10.165  -2.372   7.126  1.00  0.00     0.296 C 
HETATM   12  O2  UNL     1      11.387  -2.291   7.349  1.00  0.00    -0.259 OA
BRANCH  11  13
HETATM   13  O1  UNL     1       9.858  -3.171   5.999  1.00  0.00    -0.313 OA
BRANCH  13  14
HETATM   14  C2  UNL     1      10.342  -4.464   5.825  1.00  0.00     0.124 C 
HETATM   15  C1  UNL     1      10.143  -5.341   7.041  1.00  0.00     0.040 C 
HETATM   16  C3  UNL     1       9.600  -5.089   4.662  1.00  0.00     0.040 C 
ENDBRANCH  13  14
ENDBRANCH  11  13
ENDBRANCH   1  11
BRANCH  10  17
HETATM   17  O5  UNL     1       7.373  -2.208   6.310  1.00  0.00    -0.360 OA
ATOM     18  H5  UNL     1       6.545  -1.965   5.911  1.00  0.00     0.217 HD
ENDBRANCH  10  17
BRANCH   5  19
HETATM   19  C10 UNL     1       8.381   1.240  13.285  1.00  0.00     0.156 C 
HETATM   20 CL1  UNL     1       9.854   2.197  13.146  1.00  0.00    -0.125 Cl
ENDBRANCH   5  19
BRANCH   7  21
HETATM   21  O4  UNL     1       4.992   0.226   9.983  1.00  0.00    -0.357 OA
ATOM     22  H4  UNL     1       4.507   1.008  10.220  1.00  0.00     0.217 HD
ENDBRANCH   7  21
BRANCH   6  23
HETATM   23  O3  UNL     1       5.761   1.329  12.397  1.00  0.00    -0.357 OA
ATOM     24  H3  UNL     1       6.052   1.664  13.236  1.00  0.00     0.217 HD
ENDBRANCH   6  23
TORSDOF 7
ENDMDL
