MODEL 1
REMARK VINA RESULT: -4.267569630      0.000      0.000
REMARK  7 active torsions:
REMARK  status: ('A' for Active; 'I' for Inactive)
REMARK    1  A    between atoms: O1_2  and  C2_3 
REMARK    2  A    between atoms: C2_3  and  C3_4 
REMARK    3  A    between atoms: C2_3  and  C6_11 
REMARK    4  A    between atoms: C3_4  and  C4_5 
REMARK    5  A    between atoms: C4_5  and  C5_6 
REMARK    6  A    between atoms: C5_6  and  N1_7 
REMARK    7  A    between atoms: C6_11  and  O2_12 
ROOT
HETATM    1  C3  UNL     1     -26.273  65.497  24.280  1.00  0.00    -0.148 C 
ENDROOT
BRANCH   1   2
HETATM    2  C2  UNL     1     -25.075  65.721  24.584  1.00  0.00     0.210 C 
BRANCH   2   3
HETATM    3  O1  UNL     1     -24.698  65.147  25.822  1.00  0.00    -0.377 OA
HETATM    4  C1  UNL     1     -25.280  64.082  26.459  1.00  0.00     0.203 C 
ENDBRANCH   2   3
BRANCH   2   5
HETATM    5  C6  UNL     1     -24.036  66.465  23.880  1.00  0.00     0.208 C 
BRANCH   5   6
HETATM    6  O2  UNL     1     -24.491  67.237  22.798  1.00  0.00    -0.397 OA
ATOM      7  H2  UNL     1     -23.821  67.752  22.364  1.00  0.00     0.209 HD
ENDBRANCH   5   6
ENDBRANCH   2   5
ENDBRANCH   1   2
BRANCH   1   8
HETATM    8  C4  UNL     1     -27.615  65.247  23.940  1.00  0.00     0.110 C 
BRANCH   8   9
HETATM    9  C5  UNL     1     -28.216  66.258  22.963  1.00  0.00     0.240 C 
BRANCH   9  10
HETATM   10  N1  UNL     1     -27.274  66.426  21.888  1.00  0.00    -0.079 N 
ATOM     11  H13 UNL     1     -26.311  66.517  22.212  1.00  0.00     0.274 HD
ATOM     12  H12 UNL     1     -27.146  65.579  21.333  1.00  0.00     0.274 HD
ATOM     13  H11 UNL     1     -27.586  67.223  21.333  1.00  0.00     0.274 HD
ENDBRANCH   9  10
ENDBRANCH   8   9
ENDBRANCH   1   8
TORSDOF 7
ENDMDL
MODEL 2
REMARK VINA RESULT: -4.246679623      2.325      3.440
REMARK  7 active torsions:
REMARK  status: ('A' for Active; 'I' for Inactive)
REMARK    1  A    between atoms: O1_2  and  C2_3 
REMARK    2  A    between atoms: C2_3  and  C3_4 
REMARK    3  A    between atoms: C2_3  and  C6_11 
REMARK    4  A    between atoms: C3_4  and  C4_5 
REMARK    5  A    between atoms: C4_5  and  C5_6 
REMARK    6  A    between atoms: C5_6  and  N1_7 
REMARK    7  A    between atoms: C6_11  and  O2_12 
ROOT
HETATM    1  C3  UNL     1     -25.651  65.440  24.620  1.00  0.00    -0.148 C 
ENDROOT
BRANCH   1   2
HETATM    2  C2  UNL     1     -26.299  65.861  23.630  1.00  0.00     0.210 C 
BRANCH   2   3
HETATM    3  O1  UNL     1     -27.538  65.199  23.453  1.00  0.00    -0.377 OA
HETATM    4  C1  UNL     1     -28.790  65.683  23.731  1.00  0.00     0.203 C 
ENDBRANCH   2   3
BRANCH   2   5
HETATM    5  C6  UNL     1     -25.982  66.899  22.655  1.00  0.00     0.208 C 
BRANCH   5   6
HETATM    6  O2  UNL     1     -24.645  67.327  22.659  1.00  0.00    -0.397 OA
ATOM      7  H2  UNL     1     -24.501  68.196  22.306  1.00  0.00     0.209 HD
ENDBRANCH   5   6
ENDBRANCH   2   5
ENDBRANCH   1   2
BRANCH   1   8
HETATM    8  C4  UNL     1     -24.925  64.968  25.730  1.00  0.00     0.110 C 
BRANCH   8   9
HETATM    9  C5  UNL     1     -25.615  63.842  26.501  1.00  0.00     0.240 C 
BRANCH   9  10
HETATM   10  N1  UNL     1     -27.030  64.106  26.468  1.00  0.00    -0.079 N 
ATOM     11  H13 UNL     1     -27.455  63.891  25.566  1.00  0.00     0.274 HD
ATOM     12  H12 UNL     1     -27.571  63.448  27.029  1.00  0.00     0.274 HD
ATOM     13  H11 UNL     1     -27.163  65.076  26.751  1.00  0.00     0.274 HD
ENDBRANCH   9  10
ENDBRANCH   8   9
ENDBRANCH   1   8
TORSDOF 7
ENDMDL
MODEL 3
REMARK VINA RESULT: -4.236304025      2.053      3.159
REMARK  7 active torsions:
REMARK  status: ('A' for Active; 'I' for Inactive)
REMARK    1  A    between atoms: O1_2  and  C2_3 
REMARK    2  A    between atoms: C2_3  and  C3_4 
REMARK    3  A    between atoms: C2_3  and  C6_11 
REMARK    4  A    between atoms: C3_4  and  C4_5 
REMARK    5  A    between atoms: C4_5  and  C5_6 
REMARK    6  A    between atoms: C5_6  and  N1_7 
REMARK    7  A    between atoms: C6_11  and  O2_12 
ROOT
HETATM    1  C3  UNL     1     -26.137  65.496  24.421  1.00  0.00    -0.148 C 
ENDROOT
BRANCH   1   2
HETATM    2  C2  UNL     1     -27.310  65.417  23.980  1.00  0.00     0.210 C 
BRANCH   2   3
HETATM    3  O1  UNL     1     -28.115  64.504  24.702  1.00  0.00    -0.377 OA
HETATM    4  C1  UNL     1     -27.883  63.995  25.954  1.00  0.00     0.203 C 
ENDBRANCH   2   3
BRANCH   2   5
HETATM    5  C6  UNL     1     -27.958  66.100  22.866  1.00  0.00     0.208 C 
BRANCH   5   6
HETATM    6  O2  UNL     1     -27.118  66.385  21.777  1.00  0.00    -0.397 OA
ATOM      7  H2  UNL     1     -26.788  67.275  21.749  1.00  0.00     0.209 HD
ENDBRANCH   5   6
ENDBRANCH   2   5
ENDBRANCH   1   2
BRANCH   1   8
HETATM    8  C4  UNL     1     -24.822  65.585  24.914  1.00  0.00     0.110 C 
BRANCH   8   9
HETATM    9  C5  UNL     1     -23.828  66.227  23.945  1.00  0.00     0.240 C 
BRANCH   9  10
HETATM   10  N1  UNL     1     -24.552  67.204  23.175  1.00  0.00    -0.079 N 
ATOM     11  H13 UNL     1     -24.985  66.812  22.339  1.00  0.00     0.274 HD
ATOM     12  H12 UNL     1     -25.409  67.517  23.632  1.00  0.00     0.274 HD
ATOM     13  H11 UNL     1     -23.907  67.967  22.970  1.00  0.00     0.274 HD
ENDBRANCH   9  10
ENDBRANCH   8   9
ENDBRANCH   1   8
TORSDOF 7
ENDMDL
MODEL 4
REMARK VINA RESULT: -4.122427288      1.645      1.645
REMARK  7 active torsions:
REMARK  status: ('A' for Active; 'I' for Inactive)
REMARK    1  A    between atoms: O1_2  and  C2_3 
REMARK    2  A    between atoms: C2_3  and  C3_4 
REMARK    3  A    between atoms: C2_3  and  C6_11 
REMARK    4  A    between atoms: C3_4  and  C4_5 
REMARK    5  A    between atoms: C4_5  and  C5_6 
REMARK    6  A    between atoms: C5_6  and  N1_7 
REMARK    7  A    between atoms: C6_11  and  O2_12 
ROOT
HETATM    1  C3  UNL     1     -26.285  65.460  24.080  1.00  0.00    -0.148 C 
ENDROOT
BRANCH   1   2
HETATM    2  C2  UNL     1     -25.206  65.860  23.578  1.00  0.00     0.210 C 
BRANCH   2   3
HETATM    3  O1  UNL     1     -24.208  64.856  23.532  1.00  0.00    -0.377 OA
HETATM    4  C1  UNL     1     -23.463  64.371  24.576  1.00  0.00     0.203 C 
ENDBRANCH   2   3
BRANCH   2   5
HETATM    5  C6  UNL     1     -24.825  67.165  23.049  1.00  0.00     0.208 C 
BRANCH   5   6
HETATM    6  O2  UNL     1     -25.899  67.975  22.645  1.00  0.00    -0.397 OA
ATOM      7  H2  UNL     1     -25.650  68.794  22.234  1.00  0.00     0.209 HD
ENDBRANCH   5   6
ENDBRANCH   2   5
ENDBRANCH   1   2
BRANCH   1   8
HETATM    8  C4  UNL     1     -27.495  65.013  24.642  1.00  0.00     0.110 C 
BRANCH   8   9
HETATM    9  C5  UNL     1     -28.741  65.395  23.841  1.00  0.00     0.240 C 
BRANCH   9  10
HETATM   10  N1  UNL     1     -28.564  66.753  23.398  1.00  0.00    -0.079 N 
ATOM     11  H13 UNL     1     -28.542  66.842  22.382  1.00  0.00     0.274 HD
ATOM     12  H12 UNL     1     -29.384  67.336  23.563  1.00  0.00     0.274 HD
ATOM     13  H11 UNL     1     -27.722  67.111  23.849  1.00  0.00     0.274 HD
ENDBRANCH   9  10
ENDBRANCH   8   9
ENDBRANCH   1   8
TORSDOF 7
ENDMDL
MODEL 5
REMARK VINA RESULT: -4.116124879      2.138      2.851
REMARK  7 active torsions:
REMARK  status: ('A' for Active; 'I' for Inactive)
REMARK    1  A    between atoms: O1_2  and  C2_3 
REMARK    2  A    between atoms: C2_3  and  C3_4 
REMARK    3  A    between atoms: C2_3  and  C6_11 
REMARK    4  A    between atoms: C3_4  and  C4_5 
REMARK    5  A    between atoms: C4_5  and  C5_6 
REMARK    6  A    between atoms: C5_6  and  N1_7 
REMARK    7  A    between atoms: C6_11  and  O2_12 
ROOT
HETATM    1  C3  UNL     1     -26.100  65.386  24.470  1.00  0.00    -0.148 C 
ENDROOT
BRANCH   1   2
HETATM    2  C2  UNL     1     -26.981  64.786  25.135  1.00  0.00     0.210 C 
BRANCH   2   3
HETATM    3  O1  UNL     1     -26.521  64.352  26.402  1.00  0.00    -0.377 OA
HETATM    4  C1  UNL     1     -25.367  63.668  26.681  1.00  0.00     0.203 C 
ENDBRANCH   2   3
BRANCH   2   5
HETATM    5  C6  UNL     1     -28.369  64.472  24.815  1.00  0.00     0.208 C 
BRANCH   5   6
HETATM    6  O2  UNL     1     -28.671  64.458  23.443  1.00  0.00    -0.397 OA
ATOM      7  H2  UNL     1     -29.291  63.790  23.177  1.00  0.00     0.209 HD
ENDBRANCH   5   6
ENDBRANCH   2   5
ENDBRANCH   1   2
BRANCH   1   8
HETATM    8  C4  UNL     1     -25.114  66.057  23.724  1.00  0.00     0.110 C 
BRANCH   8   9
HETATM    9  C5  UNL     1     -25.663  67.083  22.732  1.00  0.00     0.240 C 
BRANCH   9  10
HETATM   10  N1  UNL     1     -26.724  66.443  21.999  1.00  0.00    -0.079 N 
ATOM     11  H13 UNL     1     -27.579  66.338  22.545  1.00  0.00     0.274 HD
ATOM     12  H12 UNL     1     -27.110  67.030  21.261  1.00  0.00     0.274 HD
ATOM     13  H11 UNL     1     -26.360  65.555  21.654  1.00  0.00     0.274 HD
ENDBRANCH   9  10
ENDBRANCH   8   9
ENDBRANCH   1   8
TORSDOF 7
ENDMDL
