MODEL 1
REMARK VINA RESULT: -9.150851736      0.000      0.000
REMARK  5 active torsions:
REMARK  status: ('A' for Active; 'I' for Inactive)
REMARK    1  A    between atoms: C4_4  and  C5_5 
REMARK    2  A    between atoms: C6_6  and  C7_7 
REMARK    3  A    between atoms: C11_13  and  C12_14 
REMARK    4  A    between atoms: C12_14  and  N2_15 
REMARK       I    between atoms: N2_15  and  C13_17 
REMARK    5  A    between atoms: C13_17  and  C14_19 
ROOT
HETATM    1  C7  UNL     1     -12.747  30.408  16.939  1.00  0.00     0.040 A 
HETATM    2  N1  UNL     1     -12.937  31.733  17.040  1.00  0.00    -0.365 N 
ATOM      3  H1  UNL     1     -12.428  32.341  16.397  1.00  0.00     0.165 HD
HETATM    4  C8  UNL     1     -13.757  32.306  17.936  1.00  0.00     0.088 A 
HETATM    5  C9  UNL     1     -14.436  31.470  18.793  1.00  0.00     0.018 A 
HETATM    6  C10 UNL     1     -14.266  30.079  18.721  1.00  0.00     0.012 A 
HETATM    7  C11 UNL     1     -13.422  29.530  17.795  1.00  0.00    -0.014 A 
ENDROOT
BRANCH   7   8
HETATM    8  C12 UNL     1     -13.210  28.091  17.723  1.00  0.00     0.163 C 
BRANCH   8   9
HETATM    9  N2  UNL     1     -14.170  27.258  18.372  1.00  0.00    -0.353 N 
HETATM   10  C13 UNL     1     -14.891  26.224  17.748  1.00  0.00     0.252 C 
HETATM   11  O1  UNL     1     -14.691  25.989  16.535  1.00  0.00    -0.268 OA
ATOM     12  H2  UNL     1     -14.346  27.424  19.363  1.00  0.00     0.163 HD
BRANCH  10  13
HETATM   13  C14 UNL     1     -15.853  25.432  18.478  1.00  0.00     0.034 A 
HETATM   14  C15 UNL     1     -16.859  24.711  17.888  1.00  0.00     0.020 A 
HETATM   15  C16 UNL     1     -17.723  23.989  18.678  1.00  0.00     0.040 A 
HETATM   16  C17 UNL     1     -17.632  23.950  20.060  1.00  0.00     0.102 A 
HETATM   17  C18 UNL     1     -16.619  24.676  20.643  1.00  0.00     0.103 A 
HETATM   18  O3  UNL     1     -18.491  23.231  20.849  1.00  0.00    -0.346 OA
HETATM   19  C19 UNL     1     -15.749  25.402  19.870  1.00  0.00     0.056 A 
HETATM   20  O2  UNL     1     -16.521  24.642  22.032  1.00  0.00    -0.346 OA
HETATM   21  C20 UNL     1     -17.578  24.234  22.864  1.00  0.00     0.202 C 
HETATM   22  C21 UNL     1     -18.354  23.075  22.246  1.00  0.00     0.202 C 
ENDBRANCH  10  13
ENDBRANCH   8   9
ENDBRANCH   7   8
BRANCH   1  23
HETATM   23  C6  UNL     1     -11.828  29.860  15.927  1.00  0.00     0.031 C 
HETATM   24  C5  UNL     1     -10.941  30.632  15.363  1.00  0.00     0.014 C 
BRANCH  24  25
HETATM   25  C4  UNL     1      -9.998  30.194  14.365  1.00  0.00    -0.033 A 
HETATM   26  C3  UNL     1     -10.011  28.881  13.950  1.00  0.00     0.036 A 
HETATM   27  C2  UNL     1      -9.138  28.407  13.002  1.00  0.00     0.005 A 
HETATM   28  C1  UNL     1      -9.133  26.992  12.538  1.00  0.00     0.068 C 
HETATM   29  N3  UNL     1      -8.264  29.308  12.503  1.00  0.00    -0.369 N 
HETATM   30  C23 UNL     1      -8.201  30.581  12.858  1.00  0.00     0.089 A 
ATOM     31  H3  UNL     1      -7.603  28.982  11.797  1.00  0.00     0.165 HD
HETATM   32  C22 UNL     1      -9.092  31.062  13.823  1.00  0.00     0.028 A 
ENDBRANCH  24  25
ENDBRANCH   1  23
TORSDOF 5
ENDMDL
MODEL 2
REMARK VINA RESULT: -9.124100943      3.145      9.314
REMARK  5 active torsions:
REMARK  status: ('A' for Active; 'I' for Inactive)
REMARK    1  A    between atoms: C4_4  and  C5_5 
REMARK    2  A    between atoms: C6_6  and  C7_7 
REMARK    3  A    between atoms: C11_13  and  C12_14 
REMARK    4  A    between atoms: C12_14  and  N2_15 
REMARK       I    between atoms: N2_15  and  C13_17 
REMARK    5  A    between atoms: C13_17  and  C14_19 
ROOT
HETATM    1  C7  UNL     1     -14.299  30.313  20.407  1.00  0.00     0.040 A 
HETATM    2  N1  UNL     1     -14.644  31.438  21.053  1.00  0.00    -0.365 N 
ATOM      3  H1  UNL     1     -14.713  31.405  22.070  1.00  0.00     0.165 HD
HETATM    4  C8  UNL     1     -14.902  32.604  20.440  1.00  0.00     0.088 A 
HETATM    5  C9  UNL     1     -14.801  32.630  19.067  1.00  0.00     0.018 A 
HETATM    6  C10 UNL     1     -14.444  31.477  18.353  1.00  0.00     0.012 A 
HETATM    7  C11 UNL     1     -14.188  30.305  19.012  1.00  0.00    -0.014 A 
ENDROOT
BRANCH   7   8
HETATM    8  C12 UNL     1     -13.843  29.089  18.287  1.00  0.00     0.163 C 
BRANCH   8   9
HETATM    9  N2  UNL     1     -12.792  29.179  17.326  1.00  0.00    -0.353 N 
HETATM   10  C13 UNL     1     -12.632  28.318  16.225  1.00  0.00     0.252 C 
HETATM   11  O1  UNL     1     -13.463  27.400  16.045  1.00  0.00    -0.268 OA
ATOM     12  H2  UNL     1     -12.105  29.924  17.447  1.00  0.00     0.163 HD
BRANCH  10  13
HETATM   13  C14 UNL     1     -11.532  28.475  15.303  1.00  0.00     0.034 A 
HETATM   14  C15 UNL     1     -10.886  27.429  14.695  1.00  0.00     0.020 A 
HETATM   15  C16 UNL     1      -9.848  27.689  13.831  1.00  0.00     0.040 A 
HETATM   16  C17 UNL     1      -9.412  28.971  13.536  1.00  0.00     0.102 A 
HETATM   17  C18 UNL     1     -10.067  30.014  14.150  1.00  0.00     0.103 A 
HETATM   18  O3  UNL     1      -8.378  29.233  12.676  1.00  0.00    -0.346 OA
HETATM   19  C19 UNL     1     -11.104  29.772  15.015  1.00  0.00     0.056 A 
HETATM   20  O2  UNL     1      -9.634  31.305  13.859  1.00  0.00    -0.346 OA
HETATM   21  C20 UNL     1      -8.376  31.582  13.294  1.00  0.00     0.202 C 
HETATM   22  C21 UNL     1      -7.988  30.526  12.263  1.00  0.00     0.202 C 
ENDBRANCH  10  13
ENDBRANCH   8   9
ENDBRANCH   7   8
BRANCH   1  23
HETATM   23  C6  UNL     1     -14.032  29.073  21.156  1.00  0.00     0.031 C 
HETATM   24  C5  UNL     1     -15.021  28.310  21.531  1.00  0.00     0.014 C 
BRANCH  24  25
HETATM   25  C4  UNL     1     -14.867  27.080  22.265  1.00  0.00    -0.033 A 
HETATM   26  C3  UNL     1     -15.554  25.957  21.861  1.00  0.00     0.036 A 
HETATM   27  C2  UNL     1     -15.447  24.758  22.521  1.00  0.00     0.005 A 
HETATM   28  C1  UNL     1     -16.180  23.532  22.103  1.00  0.00     0.068 C 
HETATM   29  N3  UNL     1     -14.624  24.748  23.593  1.00  0.00    -0.369 N 
HETATM   30  C23 UNL     1     -13.936  25.790  24.031  1.00  0.00     0.089 A 
ATOM     31  H3  UNL     1     -14.525  23.870  24.102  1.00  0.00     0.165 HD
HETATM   32  C22 UNL     1     -14.047  27.010  23.357  1.00  0.00     0.028 A 
ENDBRANCH  24  25
ENDBRANCH   1  23
TORSDOF 5
ENDMDL
MODEL 3
REMARK VINA RESULT: -9.095059277      3.354      9.353
REMARK  5 active torsions:
REMARK  status: ('A' for Active; 'I' for Inactive)
REMARK    1  A    between atoms: C4_4  and  C5_5 
REMARK    2  A    between atoms: C6_6  and  C7_7 
REMARK    3  A    between atoms: C11_13  and  C12_14 
REMARK    4  A    between atoms: C12_14  and  N2_15 
REMARK       I    between atoms: N2_15  and  C13_17 
REMARK    5  A    between atoms: C13_17  and  C14_19 
ROOT
HETATM    1  C7  UNL     1     -14.306  30.323  20.606  1.00  0.00     0.040 A 
HETATM    2  N1  UNL     1     -14.638  31.389  21.351  1.00  0.00    -0.365 N 
ATOM      3  H1  UNL     1     -14.663  31.276  22.365  1.00  0.00     0.165 HD
HETATM    4  C8  UNL     1     -14.938  32.595  20.842  1.00  0.00     0.088 A 
HETATM    5  C9  UNL     1     -14.897  32.728  19.472  1.00  0.00     0.018 A 
HETATM    6  C10 UNL     1     -14.556  31.639  18.656  1.00  0.00     0.012 A 
HETATM    7  C11 UNL     1     -14.256  30.424  19.211  1.00  0.00    -0.014 A 
ENDROOT
BRANCH   7   8
HETATM    8  C12 UNL     1     -13.926  29.273  18.380  1.00  0.00     0.163 C 
BRANCH   8   9
HETATM    9  N2  UNL     1     -13.123  29.513  17.225  1.00  0.00    -0.353 N 
HETATM   10  C13 UNL     1     -11.920  28.845  16.929  1.00  0.00     0.252 C 
HETATM   11  O1  UNL     1     -11.504  27.965  17.715  1.00  0.00    -0.268 OA
ATOM     12  H2  UNL     1     -13.445  30.221  16.565  1.00  0.00     0.163 HD
BRANCH  10  13
HETATM   13  C14 UNL     1     -11.162  29.155  15.740  1.00  0.00     0.034 A 
HETATM   14  C15 UNL     1     -10.782  30.423  15.382  1.00  0.00     0.020 A 
HETATM   15  C16 UNL     1     -10.060  30.608  14.225  1.00  0.00     0.040 A 
HETATM   16  C17 UNL     1      -9.690  29.567  13.389  1.00  0.00     0.102 A 
HETATM   17  C18 UNL     1     -10.076  28.298  13.758  1.00  0.00     0.103 A 
HETATM   18  O3  UNL     1      -8.971  29.748  12.237  1.00  0.00    -0.346 OA
HETATM   19  C19 UNL     1     -10.796  28.096  14.907  1.00  0.00     0.056 A 
HETATM   20  O2  UNL     1      -9.708  27.247  12.922  1.00  0.00    -0.346 OA
HETATM   21  C20 UNL     1      -9.312  27.433  11.586  1.00  0.00     0.202 C 
HETATM   22  C21 UNL     1      -8.477  28.701  11.428  1.00  0.00     0.202 C 
ENDBRANCH  10  13
ENDBRANCH   8   9
ENDBRANCH   7   8
BRANCH   1  23
HETATM   23  C6  UNL     1     -13.990  29.034  21.244  1.00  0.00     0.031 C 
HETATM   24  C5  UNL     1     -14.953  28.246  21.638  1.00  0.00     0.014 C 
BRANCH  24  25
HETATM   25  C4  UNL     1     -14.750  26.968  22.272  1.00  0.00    -0.033 A 
HETATM   26  C3  UNL     1     -13.833  26.855  23.293  1.00  0.00     0.036 A 
HETATM   27  C2  UNL     1     -13.597  25.664  23.934  1.00  0.00     0.005 A 
HETATM   28  C1  UNL     1     -12.612  25.518  25.040  1.00  0.00     0.068 C 
HETATM   29  N3  UNL     1     -14.320  24.608  23.499  1.00  0.00    -0.369 N 
HETATM   30  C23 UNL     1     -15.215  24.651  22.525  1.00  0.00     0.089 A 
ATOM     31  H3  UNL     1     -14.164  23.710  23.957  1.00  0.00     0.165 HD
HETATM   32  C22 UNL     1     -15.453  25.866  21.874  1.00  0.00     0.028 A 
ENDBRANCH  24  25
ENDBRANCH   1  23
TORSDOF 5
ENDMDL
MODEL 4
REMARK VINA RESULT: -9.037524897      3.353      8.515
REMARK  5 active torsions:
REMARK  status: ('A' for Active; 'I' for Inactive)
REMARK    1  A    between atoms: C4_4  and  C5_5 
REMARK    2  A    between atoms: C6_6  and  C7_7 
REMARK    3  A    between atoms: C11_13  and  C12_14 
REMARK    4  A    between atoms: C12_14  and  N2_15 
REMARK       I    between atoms: N2_15  and  C13_17 
REMARK    5  A    between atoms: C13_17  and  C14_19 
ROOT
HETATM    1  C7  UNL     1     -14.910  26.554  21.479  1.00  0.00     0.040 A 
HETATM    2  N1  UNL     1     -14.516  25.584  22.317  1.00  0.00    -0.365 N 
ATOM      3  H1  UNL     1     -14.868  24.639  22.157  1.00  0.00     0.165 HD
HETATM    4  C8  UNL     1     -13.686  25.781  23.354  1.00  0.00     0.088 A 
HETATM    5  C9  UNL     1     -13.220  27.061  23.552  1.00  0.00     0.018 A 
HETATM    6  C10 UNL     1     -13.607  28.105  22.699  1.00  0.00     0.012 A 
HETATM    7  C11 UNL     1     -14.456  27.866  21.652  1.00  0.00    -0.014 A 
ENDROOT
BRANCH   7   8
HETATM    8  C12 UNL     1     -14.893  28.941  20.771  1.00  0.00     0.163 C 
BRANCH   8   9
HETATM    9  N2  UNL     1     -14.053  29.255  19.660  1.00  0.00    -0.353 N 
HETATM   10  C13 UNL     1     -14.277  30.308  18.755  1.00  0.00     0.252 C 
HETATM   11  O1  UNL     1     -15.274  31.047  18.916  1.00  0.00    -0.268 OA
ATOM     12  H2  UNL     1     -13.230  28.671  19.512  1.00  0.00     0.163 HD
BRANCH  10  13
HETATM   13  C14 UNL     1     -13.381  30.551  17.650  1.00  0.00     0.034 A 
HETATM   14  C15 UNL     1     -13.177  31.784  17.085  1.00  0.00     0.020 A 
HETATM   15  C16 UNL     1     -12.299  31.906  16.032  1.00  0.00     0.040 A 
HETATM   16  C17 UNL     1     -11.597  30.834  15.505  1.00  0.00     0.102 A 
HETATM   17  C18 UNL     1     -11.807  29.602  16.079  1.00  0.00     0.103 A 
HETATM   18  O3  UNL     1     -10.721  30.953  14.458  1.00  0.00    -0.346 OA
HETATM   19  C19 UNL     1     -12.680  29.463  17.128  1.00  0.00     0.056 A 
HETATM   20  O2  UNL     1     -11.105  28.520  15.554  1.00  0.00    -0.346 OA
HETATM   21  C20 UNL     1     -10.508  28.540  14.281  1.00  0.00     0.202 C 
HETATM   22  C21 UNL     1      -9.904  29.907  13.974  1.00  0.00     0.202 C 
ENDBRANCH  10  13
ENDBRANCH   8   9
ENDBRANCH   7   8
BRANCH   1  23
HETATM   23  C6  UNL     1     -15.825  26.253  20.364  1.00  0.00     0.031 C 
HETATM   24  C5  UNL     1     -15.431  25.487  19.383  1.00  0.00     0.014 C 
BRANCH  24  25
HETATM   25  C4  UNL     1     -16.247  25.133  18.250  1.00  0.00    -0.033 A 
HETATM   26  C3  UNL     1     -15.646  24.677  17.098  1.00  0.00     0.036 A 
HETATM   27  C2  UNL     1     -16.372  24.325  15.987  1.00  0.00     0.005 A 
HETATM   28  C1  UNL     1     -15.745  23.829  14.731  1.00  0.00     0.068 C 
HETATM   29  N3  UNL     1     -17.712  24.454  16.093  1.00  0.00    -0.369 N 
HETATM   30  C23 UNL     1     -18.350  24.884  17.170  1.00  0.00     0.089 A 
ATOM     31  H3  UNL     1     -18.276  24.199  15.282  1.00  0.00     0.165 HD
HETATM   32  C22 UNL     1     -17.608  25.242  18.300  1.00  0.00     0.028 A 
ENDBRANCH  24  25
ENDBRANCH   1  23
TORSDOF 5
ENDMDL
MODEL 5
REMARK VINA RESULT: -8.891561530      3.484      5.863
REMARK  5 active torsions:
REMARK  status: ('A' for Active; 'I' for Inactive)
REMARK    1  A    between atoms: C4_4  and  C5_5 
REMARK    2  A    between atoms: C6_6  and  C7_7 
REMARK    3  A    between atoms: C11_13  and  C12_14 
REMARK    4  A    between atoms: C12_14  and  N2_15 
REMARK       I    between atoms: N2_15  and  C13_17 
REMARK    5  A    between atoms: C13_17  and  C14_19 
ROOT
HETATM    1  C7  UNL     1     -14.265  25.439  15.880  1.00  0.00     0.040 A 
HETATM    2  N1  UNL     1     -13.103  25.485  15.210  1.00  0.00    -0.365 N 
ATOM      3  H1  UNL     1     -12.431  26.210  15.464  1.00  0.00     0.165 HD
HETATM    4  C8  UNL     1     -12.772  24.634  14.225  1.00  0.00     0.088 A 
HETATM    5  C9  UNL     1     -13.691  23.662  13.898  1.00  0.00     0.018 A 
HETATM    6  C10 UNL     1     -14.917  23.579  14.574  1.00  0.00     0.012 A 
HETATM    7  C11 UNL     1     -15.221  24.464  15.573  1.00  0.00    -0.014 A 
ENDROOT
BRANCH   7   8
HETATM    8  C12 UNL     1     -16.500  24.412  16.267  1.00  0.00     0.163 C 
BRANCH   8   9
HETATM    9  N2  UNL     1     -16.469  24.151  17.670  1.00  0.00    -0.353 N 
HETATM   10  C13 UNL     1     -17.469  24.533  18.582  1.00  0.00     0.252 C 
HETATM   11  O1  UNL     1     -18.478  25.143  18.159  1.00  0.00    -0.268 OA
ATOM     12  H2  UNL     1     -15.661  23.648  18.039  1.00  0.00     0.163 HD
BRANCH  10  13
HETATM   13  C14 UNL     1     -17.356  24.236  19.990  1.00  0.00     0.034 A 
HETATM   14  C15 UNL     1     -18.379  23.736  20.754  1.00  0.00     0.020 A 
HETATM   15  C16 UNL     1     -18.164  23.488  22.090  1.00  0.00     0.040 A 
HETATM   16  C17 UNL     1     -16.949  23.717  22.716  1.00  0.00     0.102 A 
HETATM   17  C18 UNL     1     -15.928  24.217  21.941  1.00  0.00     0.103 A 
HETATM   18  O3  UNL     1     -16.732  23.470  24.046  1.00  0.00    -0.346 OA
HETATM   19  C19 UNL     1     -16.126  24.471  20.608  1.00  0.00     0.056 A 
HETATM   20  O2  UNL     1     -14.704  24.451  22.564  1.00  0.00    -0.346 OA
HETATM   21  C20 UNL     1     -14.564  24.561  23.958  1.00  0.00     0.202 C 
HETATM   22  C21 UNL     1     -15.478  23.580  24.687  1.00  0.00     0.202 C 
ENDBRANCH  10  13
ENDBRANCH   8   9
ENDBRANCH   7   8
BRANCH   1  23
HETATM   23  C6  UNL     1     -14.550  26.411  16.949  1.00  0.00     0.031 C 
HETATM   24  C5  UNL     1     -13.645  27.285  17.296  1.00  0.00     0.014 C 
BRANCH  24  25
HETATM   25  C4  UNL     1     -13.825  28.276  18.326  1.00  0.00    -0.033 A 
HETATM   26  C3  UNL     1     -14.020  29.593  17.975  1.00  0.00     0.036 A 
HETATM   27  C2  UNL     1     -14.197  30.581  18.911  1.00  0.00     0.005 A 
HETATM   28  C1  UNL     1     -14.410  32.010  18.554  1.00  0.00     0.068 C 
HETATM   29  N3  UNL     1     -14.167  30.181  20.201  1.00  0.00    -0.369 N 
HETATM   30  C23 UNL     1     -13.984  28.934  20.605  1.00  0.00     0.089 A 
ATOM     31  H3  UNL     1     -14.295  30.895  20.919  1.00  0.00     0.165 HD
HETATM   32  C22 UNL     1     -13.805  27.930  19.649  1.00  0.00     0.028 A 
ENDBRANCH  24  25
ENDBRANCH   1  23
TORSDOF 5
ENDMDL
