MODEL 1
REMARK VINA RESULT: -8.144080658      0.000      0.000
REMARK  2 active torsions:
REMARK  status: ('A' for Active; 'I' for Inactive)
REMARK    1  A    between atoms: C1_6  and  N2_7 
REMARK    2  A    between atoms: N2_7  and  C2_9 
ROOT
HETATM    1  O1  UNL     1      16.059 -28.723  15.254  1.00  0.00    -0.205 OA
HETATM    2  S1  UNL     1      15.444 -29.565  16.328  1.00  0.00     0.240 S 
HETATM    3  O2  UNL     1      14.397 -28.741  17.055  1.00  0.00    -0.205 OA
HETATM    4  N1  UNL     1      14.623 -30.935  15.671  1.00  0.00    -0.249 N 
ATOM      5  H1  UNL     1      13.903 -30.766  14.969  1.00  0.00     0.182 HD
HETATM    6  C1  UNL     1      14.855 -32.145  16.005  1.00  0.00     0.229 C 
HETATM    7  O3  UNL     1      15.813 -32.418  16.944  1.00  0.00    -0.315 OA
HETATM    8  C8  UNL     1      16.089 -31.519  17.996  1.00  0.00     0.152 C 
HETATM    9  C9  UNL     1      17.111 -32.062  18.956  1.00  0.00     0.034 C 
HETATM   10  C10 UNL     1      18.236 -31.109  19.217  1.00  0.00     0.002 C 
HETATM   11  C11 UNL     1      18.954 -30.850  17.904  1.00  0.00     0.002 C 
HETATM   12  C12 UNL     1      17.989 -30.402  16.824  1.00  0.00     0.024 C 
HETATM   13  C13 UNL     1      16.653 -30.195  17.466  1.00  0.00     0.159 C 
ENDROOT
BRANCH   6  14
HETATM   14  N2  UNL     1      14.075 -33.154  15.354  1.00  0.00    -0.351 N 
ATOM     15  H2  UNL     1      13.086 -32.994  15.159  1.00  0.00     0.163 HD
BRANCH  14  16
HETATM   16  C2  UNL     1      14.695 -34.393  14.978  1.00  0.00     0.085 C 
HETATM   17  C3  UNL     1      14.690 -35.416  16.077  1.00  0.00     0.025 C 
HETATM   18  C4  UNL     1      13.249 -35.845  16.361  1.00  0.00     0.002 C 
HETATM   19  C5  UNL     1      12.811 -36.612  15.116  1.00  0.00     0.000 C 
HETATM   20  C6  UNL     1      12.728 -35.591  13.993  1.00  0.00     0.002 C 
HETATM   21  C7  UNL     1      14.082 -34.986  13.753  1.00  0.00     0.025 C 
ENDBRANCH  14  16
ENDBRANCH   6  14
TORSDOF 2
ENDMDL
MODEL 2
REMARK VINA RESULT: -8.099228917      3.322      6.520
REMARK  2 active torsions:
REMARK  status: ('A' for Active; 'I' for Inactive)
REMARK    1  A    between atoms: C1_6  and  N2_7 
REMARK    2  A    between atoms: N2_7  and  C2_9 
ROOT
HETATM    1  O1  UNL     1      13.805 -32.971  13.766  1.00  0.00    -0.205 OA
HETATM    2  S1  UNL     1      14.874 -34.017  13.696  1.00  0.00     0.240 S 
HETATM    3  O2  UNL     1      15.564 -33.919  12.347  1.00  0.00    -0.205 OA
HETATM    4  N1  UNL     1      16.092 -33.764  14.892  1.00  0.00    -0.249 N 
ATOM      5  H1  UNL     1      16.557 -32.857  14.912  1.00  0.00     0.182 HD
HETATM    6  C1  UNL     1      16.451 -34.636  15.753  1.00  0.00     0.229 C 
HETATM    7  O3  UNL     1      15.854 -35.867  15.762  1.00  0.00    -0.315 OA
HETATM    8  C8  UNL     1      15.381 -36.463  14.575  1.00  0.00     0.152 C 
HETATM    9  C9  UNL     1      14.845 -37.849  14.808  1.00  0.00     0.034 C 
HETATM   10  C10 UNL     1      13.473 -38.051  14.241  1.00  0.00     0.002 C 
HETATM   11  C11 UNL     1      12.527 -37.086  14.933  1.00  0.00     0.002 C 
HETATM   12  C12 UNL     1      13.035 -35.659  14.855  1.00  0.00     0.024 C 
HETATM   13  C13 UNL     1      14.234 -35.652  13.960  1.00  0.00     0.159 C 
ENDROOT
BRANCH   6  14
HETATM   14  N2  UNL     1      17.481 -34.248  16.670  1.00  0.00    -0.351 N 
ATOM     15  H2  UNL     1      17.326 -33.479  17.323  1.00  0.00     0.163 HD
BRANCH  14  16
HETATM   16  C2  UNL     1      18.733 -34.950  16.664  1.00  0.00     0.085 C 
HETATM   17  C3  UNL     1      19.913 -34.060  16.931  1.00  0.00     0.025 C 
HETATM   18  C4  UNL     1      19.837 -33.539  18.367  1.00  0.00     0.002 C 
HETATM   19  C5  UNL     1      20.071 -34.765  19.246  1.00  0.00     0.000 C 
HETATM   20  C6  UNL     1      18.855 -35.659  19.063  1.00  0.00     0.002 C 
HETATM   21  C7  UNL     1      18.750 -36.090  17.628  1.00  0.00     0.025 C 
ENDBRANCH  14  16
ENDBRANCH   6  14
TORSDOF 2
ENDMDL
MODEL 3
REMARK VINA RESULT: -8.060387907      2.782      3.975
REMARK  2 active torsions:
REMARK  status: ('A' for Active; 'I' for Inactive)
REMARK    1  A    between atoms: C1_6  and  N2_7 
REMARK    2  A    between atoms: N2_7  and  C2_9 
ROOT
HETATM    1  O1  UNL     1      19.837 -34.782  18.778  1.00  0.00    -0.205 OA
HETATM    2  S1  UNL     1      19.727 -33.721  17.727  1.00  0.00     0.240 S 
HETATM    3  O2  UNL     1      20.977 -33.757  16.865  1.00  0.00    -0.205 OA
HETATM    4  N1  UNL     1      18.393 -34.008  16.669  1.00  0.00    -0.249 N 
ATOM      5  H1  UNL     1      18.347 -34.910  16.196  1.00  0.00     0.182 HD
HETATM    6  C1  UNL     1      17.460 -33.168  16.439  1.00  0.00     0.229 C 
HETATM    7  O3  UNL     1      17.481 -31.945  17.053  1.00  0.00    -0.315 OA
HETATM    8  C8  UNL     1      18.696 -31.306  17.378  1.00  0.00     0.152 C 
HETATM    9  C9  UNL     1      18.482 -29.938  17.963  1.00  0.00     0.034 C 
HETATM   10  C10 UNL     1      19.214 -29.729  19.252  1.00  0.00     0.002 C 
HETATM   11  C11 UNL     1      18.690 -30.731  20.264  1.00  0.00     0.002 C 
HETATM   12  C12 UNL     1      18.755 -32.148  19.727  1.00  0.00     0.024 C 
HETATM   13  C13 UNL     1      19.486 -32.105  18.422  1.00  0.00     0.159 C 
ENDROOT
BRANCH   6  14
HETATM   14  N2  UNL     1      16.432 -33.580  15.531  1.00  0.00    -0.351 N 
ATOM     15  H2  UNL     1      16.657 -34.176  14.735  1.00  0.00     0.163 HD
BRANCH  14  16
HETATM   16  C2  UNL     1      15.081 -33.146  15.750  1.00  0.00     0.085 C 
HETATM   17  C3  UNL     1      14.419 -32.620  14.509  1.00  0.00     0.025 C 
HETATM   18  C4  UNL     1      14.236 -33.765  13.511  1.00  0.00     0.002 C 
HETATM   19  C5  UNL     1      13.195 -34.683  14.146  1.00  0.00     0.000 C 
HETATM   20  C6  UNL     1      13.858 -35.298  15.368  1.00  0.00     0.002 C 
HETATM   21  C7  UNL     1      14.229 -34.218  16.344  1.00  0.00     0.025 C 
ENDBRANCH  14  16
ENDBRANCH   6  14
TORSDOF 2
ENDMDL
MODEL 4
REMARK VINA RESULT: -7.995506171      5.437      7.220
REMARK  2 active torsions:
REMARK  status: ('A' for Active; 'I' for Inactive)
REMARK    1  A    between atoms: C1_6  and  N2_7 
REMARK    2  A    between atoms: N2_7  and  C2_9 
ROOT
HETATM    1  O1  UNL     1      17.663 -35.832  12.313  1.00  0.00    -0.205 OA
HETATM    2  S1  UNL     1      16.263 -36.128  11.871  1.00  0.00     0.240 S 
HETATM    3  O2  UNL     1      16.072 -35.595  10.462  1.00  0.00    -0.205 OA
HETATM    4  N1  UNL     1      15.965 -37.827  11.797  1.00  0.00    -0.249 N 
ATOM      5  H1  UNL     1      16.591 -38.395  11.226  1.00  0.00     0.182 HD
HETATM    6  C1  UNL     1      15.016 -38.421  12.409  1.00  0.00     0.229 C 
HETATM    7  O3  UNL     1      14.153 -37.699  13.188  1.00  0.00    -0.315 OA
HETATM    8  C8  UNL     1      13.824 -36.363  12.875  1.00  0.00     0.152 C 
HETATM    9  C9  UNL     1      12.793 -35.796  13.811  1.00  0.00     0.034 C 
HETATM   10  C10 UNL     1      13.196 -34.480  14.400  1.00  0.00     0.002 C 
HETATM   11  C11 UNL     1      14.464 -34.688  15.209  1.00  0.00     0.002 C 
HETATM   12  C12 UNL     1      15.542 -35.364  14.384  1.00  0.00     0.024 C 
HETATM   13  C13 UNL     1      15.050 -35.447  12.973  1.00  0.00     0.159 C 
ENDROOT
BRANCH   6  14
HETATM   14  N2  UNL     1      14.923 -39.840  12.231  1.00  0.00    -0.351 N 
ATOM     15  H2  UNL     1      14.159 -40.240  11.685  1.00  0.00     0.163 HD
BRANCH  14  16
HETATM   16  C2  UNL     1      15.911 -40.693  12.827  1.00  0.00     0.085 C 
HETATM   17  C3  UNL     1      16.075 -40.469  14.303  1.00  0.00     0.025 C 
HETATM   18  C4  UNL     1      14.795 -40.898  15.023  1.00  0.00     0.002 C 
HETATM   19  C5  UNL     1      14.742 -42.415  14.866  1.00  0.00     0.000 C 
HETATM   20  C6  UNL     1      14.497 -42.682  13.389  1.00  0.00     0.002 C 
HETATM   21  C7  UNL     1      15.638 -42.139  12.577  1.00  0.00     0.025 C 
ENDBRANCH  14  16
ENDBRANCH   6  14
TORSDOF 2
ENDMDL
MODEL 5
REMARK VINA RESULT: -7.989443116      5.099      6.978
REMARK  2 active torsions:
REMARK  status: ('A' for Active; 'I' for Inactive)
REMARK    1  A    between atoms: C1_6  and  N2_7 
REMARK    2  A    between atoms: N2_7  and  C2_9 
ROOT
HETATM    1  O1  UNL     1      12.928 -26.990  18.138  1.00  0.00    -0.205 OA
HETATM    2  S1  UNL     1      13.468 -26.973  19.535  1.00  0.00     0.240 S 
HETATM    3  O2  UNL     1      12.310 -27.105  20.507  1.00  0.00    -0.205 OA
HETATM    4  N1  UNL     1      14.513 -28.315  19.829  1.00  0.00    -0.249 N 
ATOM      5  H1  UNL     1      14.145 -29.251  19.657  1.00  0.00     0.182 HD
HETATM    6  C1  UNL     1      15.714 -28.217  20.248  1.00  0.00     0.229 C 
HETATM    7  O3  UNL     1      16.250 -26.981  20.491  1.00  0.00    -0.315 OA
HETATM    8  C8  UNL     1      15.448 -25.907  20.933  1.00  0.00     0.152 C 
HETATM    9  C9  UNL     1      16.258 -24.673  21.222  1.00  0.00     0.034 C 
HETATM   10  C10 UNL     1      15.725 -23.449  20.544  1.00  0.00     0.002 C 
HETATM   11  C11 UNL     1      15.778 -23.675  19.043  1.00  0.00     0.002 C 
HETATM   12  C12 UNL     1      15.082 -24.964  18.651  1.00  0.00     0.024 C 
HETATM   13  C13 UNL     1      14.413 -25.509  19.874  1.00  0.00     0.159 C 
ENDROOT
BRANCH   6  14
HETATM   14  N2  UNL     1      16.433 -29.441  20.436  1.00  0.00    -0.351 N 
ATOM     15  H2  UNL     1      16.705 -29.740  21.373  1.00  0.00     0.163 HD
BRANCH  14  16
HETATM   16  C2  UNL     1      16.770 -30.245  19.295  1.00  0.00     0.085 C 
HETATM   17  C3  UNL     1      17.780 -29.598  18.391  1.00  0.00     0.025 C 
HETATM   18  C4  UNL     1      19.119 -29.495  19.124  1.00  0.00     0.002 C 
HETATM   19  C5  UNL     1      19.601 -30.935  19.275  1.00  0.00     0.000 C 
HETATM   20  C6  UNL     1      18.645 -31.605  20.249  1.00  0.00     0.002 C 
HETATM   21  C7  UNL     1      17.254 -31.603  19.680  1.00  0.00     0.025 C 
ENDBRANCH  14  16
ENDBRANCH   6  14
TORSDOF 2
ENDMDL
MODEL 6
REMARK VINA RESULT: -7.988696881      2.742      3.846
REMARK  2 active torsions:
REMARK  status: ('A' for Active; 'I' for Inactive)
REMARK    1  A    between atoms: C1_6  and  N2_7 
REMARK    2  A    between atoms: N2_7  and  C2_9 
ROOT
HETATM    1  O1  UNL     1      19.721 -34.801  18.734  1.00  0.00    -0.205 OA
HETATM    2  S1  UNL     1      19.660 -33.713  17.708  1.00  0.00     0.240 S 
HETATM    3  O2  UNL     1      20.909 -33.781  16.848  1.00  0.00    -0.205 OA
HETATM    4  N1  UNL     1      18.317 -33.917  16.641  1.00  0.00    -0.249 N 
ATOM      5  H1  UNL     1      18.234 -34.805  16.147  1.00  0.00     0.182 HD
HETATM    6  C1  UNL     1      17.422 -33.033  16.429  1.00  0.00     0.229 C 
HETATM    7  O3  UNL     1      17.493 -31.827  17.072  1.00  0.00    -0.315 OA
HETATM    8  C8  UNL     1      18.734 -31.248  17.414  1.00  0.00     0.152 C 
HETATM    9  C9  UNL     1      18.577 -29.886  18.031  1.00  0.00     0.034 C 
HETATM   10  C10 UNL     1      19.313 -29.739  19.326  1.00  0.00     0.002 C 
HETATM   11  C11 UNL     1      18.743 -30.742  20.313  1.00  0.00     0.002 C 
HETATM   12  C12 UNL     1      18.750 -32.147  19.743  1.00  0.00     0.024 C 
HETATM   13  C13 UNL     1      19.486 -32.105  18.441  1.00  0.00     0.159 C 
ENDROOT
BRANCH   6  14
HETATM   14  N2  UNL     1      16.379 -33.379  15.510  1.00  0.00    -0.351 N 
ATOM     15  H2  UNL     1      16.133 -32.745  14.749  1.00  0.00     0.163 HD
BRANCH  14  16
HETATM   16  C2  UNL     1      15.683 -34.625  15.668  1.00  0.00     0.085 C 
HETATM   17  C3  UNL     1      14.214 -34.453  15.931  1.00  0.00     0.025 C 
HETATM   18  C4  UNL     1      13.546 -33.860  14.689  1.00  0.00     0.002 C 
HETATM   19  C5  UNL     1      13.624 -34.960  13.633  1.00  0.00     0.000 C 
HETATM   20  C6  UNL     1      15.096 -35.109  13.282  1.00  0.00     0.002 C 
HETATM   21  C7  UNL     1      15.870 -35.532  14.498  1.00  0.00     0.025 C 
ENDBRANCH  14  16
ENDBRANCH   6  14
TORSDOF 2
ENDMDL
MODEL 7
REMARK VINA RESULT: -7.985833408      3.577      7.135
REMARK  2 active torsions:
REMARK  status: ('A' for Active; 'I' for Inactive)
REMARK    1  A    between atoms: C1_6  and  N2_7 
REMARK    2  A    between atoms: N2_7  and  C2_9 
ROOT
HETATM    1  O1  UNL     1      14.941 -38.071  17.115  1.00  0.00    -0.205 OA
HETATM    2  S1  UNL     1      14.520 -36.887  16.301  1.00  0.00     0.240 S 
HETATM    3  O2  UNL     1      13.135 -36.455  16.747  1.00  0.00    -0.205 OA
HETATM    4  N1  UNL     1      15.563 -35.536  16.556  1.00  0.00    -0.249 N 
ATOM      5  H1  UNL     1      15.696 -35.213  17.515  1.00  0.00     0.182 HD
HETATM    6  C1  UNL     1      16.178 -34.912  15.628  1.00  0.00     0.229 C 
HETATM    7  O3  UNL     1      16.030 -35.311  14.328  1.00  0.00    -0.315 OA
HETATM    8  C8  UNL     1      14.825 -35.884  13.868  1.00  0.00     0.152 C 
HETATM    9  C9  UNL     1      14.853 -36.163  12.391  1.00  0.00     0.034 C 
HETATM   10  C10 UNL     1      14.453 -37.566  12.050  1.00  0.00     0.002 C 
HETATM   11  C11 UNL     1      15.444 -38.514  12.701  1.00  0.00     0.002 C 
HETATM   12  C12 UNL     1      15.578 -38.243  14.187  1.00  0.00     0.024 C 
HETATM   13  C13 UNL     1      14.545 -37.225  14.557  1.00  0.00     0.159 C 
ENDROOT
BRANCH   6  14
HETATM   14  N2  UNL     1      17.003 -33.812  16.028  1.00  0.00    -0.351 N 
ATOM     15  H2  UNL     1      17.230 -33.071  15.364  1.00  0.00     0.163 HD
BRANCH  14  16
HETATM   16  C2  UNL     1      17.508 -33.759  17.371  1.00  0.00     0.085 C 
HETATM   17  C3  UNL     1      18.698 -34.649  17.592  1.00  0.00     0.025 C 
HETATM   18  C4  UNL     1      19.880 -34.122  16.778  1.00  0.00     0.002 C 
HETATM   19  C5  UNL     1      20.259 -32.799  17.438  1.00  0.00     0.000 C 
HETATM   20  C6  UNL     1      19.108 -31.843  17.168  1.00  0.00     0.002 C 
HETATM   21  C7  UNL     1      17.849 -32.369  17.795  1.00  0.00     0.025 C 
ENDBRANCH  14  16
ENDBRANCH   6  14
TORSDOF 2
ENDMDL
MODEL 8
REMARK VINA RESULT: -7.957097828      4.170      7.077
REMARK  2 active torsions:
REMARK  status: ('A' for Active; 'I' for Inactive)
REMARK    1  A    between atoms: C1_6  and  N2_7 
REMARK    2  A    between atoms: N2_7  and  C2_9 
ROOT
HETATM    1  O1  UNL     1      14.820 -30.074  15.906  1.00  0.00    -0.205 OA
HETATM    2  S1  UNL     1      15.951 -29.246  16.434  1.00  0.00     0.240 S 
HETATM    3  O2  UNL     1      16.710 -28.651  15.262  1.00  0.00    -0.205 OA
HETATM    4  N1  UNL     1      15.381 -27.917  17.377  1.00  0.00    -0.249 N 
ATOM      5  H1  UNL     1      14.714 -27.279  16.944  1.00  0.00     0.182 HD
HETATM    6  C1  UNL     1      15.737 -27.679  18.579  1.00  0.00     0.229 C 
HETATM    7  O3  UNL     1      16.629 -28.510  19.201  1.00  0.00    -0.315 OA
HETATM    8  C8  UNL     1      17.638 -29.179  18.476  1.00  0.00     0.152 C 
HETATM    9  C9  UNL     1      18.556 -29.966  19.370  1.00  0.00     0.034 C 
HETATM   10  C10 UNL     1      18.727 -31.388  18.932  1.00  0.00     0.002 C 
HETATM   11  C11 UNL     1      17.370 -32.067  18.981  1.00  0.00     0.002 C 
HETATM   12  C12 UNL     1      16.331 -31.289  18.197  1.00  0.00     0.024 C 
HETATM   13  C13 UNL     1      17.039 -30.182  17.480  1.00  0.00     0.159 C 
ENDROOT
BRANCH   6  14
HETATM   14  N2  UNL     1      15.159 -26.528  19.206  1.00  0.00    -0.351 N 
ATOM     15  H2  UNL     1      15.206 -25.617  18.751  1.00  0.00     0.163 HD
BRANCH  14  16
HETATM   16  C2  UNL     1      14.513 -26.668  20.481  1.00  0.00     0.085 C 
HETATM   17  C3  UNL     1      14.725 -25.487  21.385  1.00  0.00     0.025 C 
HETATM   18  C4  UNL     1      14.019 -24.266  20.793  1.00  0.00     0.002 C 
HETATM   19  C5  UNL     1      12.529 -24.576  20.904  1.00  0.00     0.000 C 
HETATM   20  C6  UNL     1      12.258 -25.720  19.940  1.00  0.00     0.002 C 
HETATM   21  C7  UNL     1      13.049 -26.930  20.350  1.00  0.00     0.025 C 
ENDBRANCH  14  16
ENDBRANCH   6  14
TORSDOF 2
ENDMDL
MODEL 9
REMARK VINA RESULT: -7.955152816      2.704      6.335
REMARK  2 active torsions:
REMARK  status: ('A' for Active; 'I' for Inactive)
REMARK    1  A    between atoms: C1_6  and  N2_7 
REMARK    2  A    between atoms: N2_7  and  C2_9 
ROOT
HETATM    1  O1  UNL     1      15.157 -35.165  12.038  1.00  0.00    -0.205 OA
HETATM    2  S1  UNL     1      15.415 -35.004  13.504  1.00  0.00     0.240 S 
HETATM    3  O2  UNL     1      16.831 -35.462  13.804  1.00  0.00    -0.205 OA
HETATM    4  N1  UNL     1      15.320 -33.350  13.990  1.00  0.00    -0.249 N 
ATOM      5  H1  UNL     1      15.911 -32.677  13.501  1.00  0.00     0.182 HD
HETATM    6  C1  UNL     1      14.561 -32.912  14.917  1.00  0.00     0.229 C 
HETATM    7  O3  UNL     1      13.750 -33.780  15.598  1.00  0.00    -0.315 OA
HETATM    8  C8  UNL     1      14.130 -35.121  15.817  1.00  0.00     0.152 C 
HETATM    9  C9  UNL     1      13.132 -35.865  16.661  1.00  0.00     0.034 C 
HETATM   10  C10 UNL     1      12.698 -37.162  16.052  1.00  0.00     0.002 C 
HETATM   11  C11 UNL     1      12.022 -36.862  14.726  1.00  0.00     0.002 C 
HETATM   12  C12 UNL     1      12.906 -36.012  13.832  1.00  0.00     0.024 C 
HETATM   13  C13 UNL     1      14.242 -35.893  14.497  1.00  0.00     0.159 C 
ENDROOT
BRANCH   6  14
HETATM   14  N2  UNL     1      14.614 -31.505  15.183  1.00  0.00    -0.351 N 
ATOM     15  H2  UNL     1      14.372 -30.835  14.453  1.00  0.00     0.163 HD
BRANCH  14  16
HETATM   16  C2  UNL     1      15.011 -31.047  16.484  1.00  0.00     0.085 C 
HETATM   17  C3  UNL     1      16.367 -31.543  16.899  1.00  0.00     0.025 C 
HETATM   18  C4  UNL     1      17.431 -30.918  15.994  1.00  0.00     0.002 C 
HETATM   19  C5  UNL     1      17.435 -29.434  16.352  1.00  0.00     0.000 C 
HETATM   20  C6  UNL     1      16.103 -28.877  15.874  1.00  0.00     0.002 C 
HETATM   21  C7  UNL     1      14.976 -29.559  16.597  1.00  0.00     0.025 C 
ENDBRANCH  14  16
ENDBRANCH   6  14
TORSDOF 2
ENDMDL
MODEL 10
REMARK VINA RESULT: -7.954684299      4.273      7.112
REMARK  2 active torsions:
REMARK  status: ('A' for Active; 'I' for Inactive)
REMARK    1  A    between atoms: C1_6  and  N2_7 
REMARK    2  A    between atoms: N2_7  and  C2_9 
ROOT
HETATM    1  O1  UNL     1      14.717 -31.459  17.592  1.00  0.00    -0.205 OA
HETATM    2  S1  UNL     1      15.732 -30.378  17.382  1.00  0.00     0.240 S 
HETATM    3  O2  UNL     1      15.923 -30.170  15.890  1.00  0.00    -0.205 OA
HETATM    4  N1  UNL     1      15.196 -28.868  18.025  1.00  0.00    -0.249 N 
ATOM      5  H1  UNL     1      14.297 -28.508  17.704  1.00  0.00     0.182 HD
HETATM    6  C1  UNL     1      15.847 -28.173  18.874  1.00  0.00     0.229 C 
HETATM    7  O3  UNL     1      17.057 -28.619  19.332  1.00  0.00    -0.315 OA
HETATM    8  C8  UNL     1      17.912 -29.391  18.518  1.00  0.00     0.152 C 
HETATM    9  C9  UNL     1      19.221 -29.694  19.192  1.00  0.00     0.034 C 
HETATM   10  C10 UNL     1      19.571 -31.150  19.170  1.00  0.00     0.002 C 
HETATM   11  C11 UNL     1      18.495 -31.908  19.927  1.00  0.00     0.002 C 
HETATM   12  C12 UNL     1      17.111 -31.587  19.397  1.00  0.00     0.024 C 
HETATM   13  C13 UNL     1      17.280 -30.745  18.171  1.00  0.00     0.159 C 
ENDROOT
BRANCH   6  14
HETATM   14  N2  UNL     1      15.245 -26.943  19.296  1.00  0.00    -0.351 N 
ATOM     15  H2  UNL     1      15.354 -26.098  18.734  1.00  0.00     0.163 HD
BRANCH  14  16
HETATM   16  C2  UNL     1      14.489 -26.909  20.515  1.00  0.00     0.085 C 
HETATM   17  C3  UNL     1      14.935 -25.829  21.460  1.00  0.00     0.025 C 
HETATM   18  C4  UNL     1      14.625 -24.463  20.845  1.00  0.00     0.002 C 
HETATM   19  C5  UNL     1      13.102 -24.366  20.838  1.00  0.00     0.000 C 
HETATM   20  C6  UNL     1      12.614 -25.395  19.831  1.00  0.00     0.002 C 
HETATM   21  C7  UNL     1      13.023 -26.772  20.270  1.00  0.00     0.025 C 
ENDBRANCH  14  16
ENDBRANCH   6  14
TORSDOF 2
ENDMDL
MODEL 11
REMARK VINA RESULT: -7.930790192      3.593      6.003
REMARK  2 active torsions:
REMARK  status: ('A' for Active; 'I' for Inactive)
REMARK    1  A    between atoms: C1_6  and  N2_7 
REMARK    2  A    between atoms: N2_7  and  C2_9 
ROOT
HETATM    1  O1  UNL     1      15.470 -34.749  16.820  1.00  0.00    -0.205 OA
HETATM    2  S1  UNL     1      16.141 -33.482  16.390  1.00  0.00     0.240 S 
HETATM    3  O2  UNL     1      15.906 -33.284  14.903  1.00  0.00    -0.205 OA
HETATM    4  N1  UNL     1      15.467 -32.104  17.182  1.00  0.00    -0.249 N 
ATOM      5  H1  UNL     1      14.460 -31.957  17.104  1.00  0.00     0.182 HD
HETATM    6  C1  UNL     1      16.141 -31.258  17.859  1.00  0.00     0.229 C 
HETATM    7  O3  UNL     1      17.494 -31.417  17.991  1.00  0.00    -0.315 OA
HETATM    8  C8  UNL     1      18.266 -32.011  16.971  1.00  0.00     0.152 C 
HETATM    9  C9  UNL     1      19.736 -32.002  17.290  1.00  0.00     0.034 C 
HETATM   10  C10 UNL     1      20.377 -33.348  17.147  1.00  0.00     0.002 C 
HETATM   11  C11 UNL     1      19.714 -34.297  18.129  1.00  0.00     0.002 C 
HETATM   12  C12 UNL     1      18.206 -34.299  17.968  1.00  0.00     0.024 C 
HETATM   13  C13 UNL     1      17.878 -33.480  16.759  1.00  0.00     0.159 C 
ENDROOT
BRANCH   6  14
HETATM   14  N2  UNL     1      15.411 -30.175  18.447  1.00  0.00    -0.351 N 
ATOM     15  H2  UNL     1      14.392 -30.205  18.489  1.00  0.00     0.163 HD
BRANCH  14  16
HETATM   16  C2  UNL     1      16.124 -29.047  18.976  1.00  0.00     0.085 C 
HETATM   17  C3  UNL     1      15.517 -27.728  18.591  1.00  0.00     0.025 C 
HETATM   18  C4  UNL     1      14.147 -27.590  19.257  1.00  0.00     0.002 C 
HETATM   19  C5  UNL     1      14.441 -27.459  20.748  1.00  0.00     0.000 C 
HETATM   20  C6  UNL     1      14.986 -28.806  21.195  1.00  0.00     0.002 C 
HETATM   21  C7  UNL     1      16.262 -29.109  20.461  1.00  0.00     0.025 C 
ENDBRANCH  14  16
ENDBRANCH   6  14
TORSDOF 2
ENDMDL
MODEL 12
REMARK VINA RESULT: -7.896528875      3.729      7.130
REMARK  2 active torsions:
REMARK  status: ('A' for Active; 'I' for Inactive)
REMARK    1  A    between atoms: C1_6  and  N2_7 
REMARK    2  A    between atoms: N2_7  and  C2_9 
ROOT
HETATM    1  O1  UNL     1      14.261 -37.578  16.863  1.00  0.00    -0.205 OA
HETATM    2  S1  UNL     1      14.363 -36.414  15.926  1.00  0.00     0.240 S 
HETATM    3  O2  UNL     1      13.077 -35.610  16.004  1.00  0.00    -0.205 OA
HETATM    4  N1  UNL     1      15.640 -35.344  16.378  1.00  0.00    -0.249 N 
ATOM      5  H1  UNL     1      15.633 -34.970  17.327  1.00  0.00     0.182 HD
HETATM    6  C1  UNL     1      16.591 -34.988  15.605  1.00  0.00     0.229 C 
HETATM    7  O3  UNL     1      16.640 -35.465  14.324  1.00  0.00    -0.315 OA
HETATM    8  C8  UNL     1      15.463 -35.764  13.606  1.00  0.00     0.152 C 
HETATM    9  C9  UNL     1      15.750 -36.188  12.192  1.00  0.00     0.034 C 
HETATM   10  C10 UNL     1      15.081 -37.475  11.817  1.00  0.00     0.002 C 
HETATM   11  C11 UNL     1      15.613 -38.569  12.725  1.00  0.00     0.002 C 
HETATM   12  C12 UNL     1      15.474 -38.192  14.187  1.00  0.00     0.024 C 
HETATM   13  C13 UNL     1      14.690 -36.919  14.256  1.00  0.00     0.159 C 
ENDROOT
BRANCH   6  14
HETATM   14  N2  UNL     1      17.565 -34.091  16.153  1.00  0.00    -0.351 N 
ATOM     15  H2  UNL     1      17.591 -33.116  15.854  1.00  0.00     0.163 HD
BRANCH  14  16
HETATM   16  C2  UNL     1      18.503 -34.576  17.125  1.00  0.00     0.085 C 
HETATM   17  C3  UNL     1      19.889 -34.028  16.935  1.00  0.00     0.025 C 
HETATM   18  C4  UNL     1      19.879 -32.523  17.213  1.00  0.00     0.002 C 
HETATM   19  C5  UNL     1      19.614 -32.398  18.711  1.00  0.00     0.000 C 
HETATM   20  C6  UNL     1      18.187 -32.872  18.933  1.00  0.00     0.002 C 
HETATM   21  C7  UNL     1      18.058 -34.312  18.525  1.00  0.00     0.025 C 
ENDBRANCH  14  16
ENDBRANCH   6  14
TORSDOF 2
ENDMDL
MODEL 13
REMARK VINA RESULT: -7.889760056      2.704      6.444
REMARK  2 active torsions:
REMARK  status: ('A' for Active; 'I' for Inactive)
REMARK    1  A    between atoms: C1_6  and  N2_7 
REMARK    2  A    between atoms: N2_7  and  C2_9 
ROOT
HETATM    1  O1  UNL     1      13.760 -33.037  13.602  1.00  0.00    -0.205 OA
HETATM    2  S1  UNL     1      14.884 -34.021  13.695  1.00  0.00     0.240 S 
HETATM    3  O2  UNL     1      15.664 -33.996  12.392  1.00  0.00    -0.205 OA
HETATM    4  N1  UNL     1      15.999 -33.599  14.943  1.00  0.00    -0.249 N 
ATOM      5  H1  UNL     1      16.413 -32.667  14.915  1.00  0.00     0.182 HD
HETATM    6  C1  UNL     1      16.341 -34.372  15.899  1.00  0.00     0.229 C 
HETATM    7  O3  UNL     1      15.810 -35.631  15.976  1.00  0.00    -0.315 OA
HETATM    8  C8  UNL     1      15.456 -36.352  14.816  1.00  0.00     0.152 C 
HETATM    9  C9  UNL     1      14.977 -37.742  15.133  1.00  0.00     0.034 C 
HETATM   10  C10 UNL     1      13.663 -38.070  14.496  1.00  0.00     0.002 C 
HETATM   11  C11 UNL     1      12.620 -37.108  15.036  1.00  0.00     0.002 C 
HETATM   12  C12 UNL     1      13.056 -35.665  14.868  1.00  0.00     0.024 C 
HETATM   13  C13 UNL     1      14.314 -35.663  14.057  1.00  0.00     0.159 C 
ENDROOT
BRANCH   6  14
HETATM   14  N2  UNL     1      17.280 -33.850  16.846  1.00  0.00    -0.351 N 
ATOM     15  H2  UNL     1      18.022 -34.445  17.215  1.00  0.00     0.163 HD
BRANCH  14  16
HETATM   16  C2  UNL     1      17.169 -32.483  17.271  1.00  0.00     0.085 C 
HETATM   17  C3  UNL     1      17.100 -32.331  18.764  1.00  0.00     0.025 C 
HETATM   18  C4  UNL     1      18.436 -32.755  19.376  1.00  0.00     0.002 C 
HETATM   19  C5  UNL     1      19.435 -31.694  18.924  1.00  0.00     0.000 C 
HETATM   20  C6  UNL     1      19.592 -31.868  17.422  1.00  0.00     0.002 C 
HETATM   21  C7  UNL     1      18.274 -31.632  16.741  1.00  0.00     0.025 C 
ENDBRANCH  14  16
ENDBRANCH   6  14
TORSDOF 2
ENDMDL
MODEL 14
REMARK VINA RESULT: -7.888423430      3.349      6.674
REMARK  2 active torsions:
REMARK  status: ('A' for Active; 'I' for Inactive)
REMARK    1  A    between atoms: C1_6  and  N2_7 
REMARK    2  A    between atoms: N2_7  and  C2_9 
ROOT
HETATM    1  O1  UNL     1      14.463 -33.951  12.818  1.00  0.00    -0.205 OA
HETATM    2  S1  UNL     1      15.341 -34.922  13.545  1.00  0.00     0.240 S 
HETATM    3  O2  UNL     1      16.436 -35.389  12.603  1.00  0.00    -0.205 OA
HETATM    4  N1  UNL     1      16.131 -34.182  14.890  1.00  0.00    -0.249 N 
ATOM      5  H1  UNL     1      16.685 -33.344  14.713  1.00  0.00     0.182 HD
HETATM    6  C1  UNL     1      16.069 -34.612  16.090  1.00  0.00     0.229 C 
HETATM    7  O3  UNL     1      15.335 -35.732  16.373  1.00  0.00    -0.315 OA
HETATM    8  C8  UNL     1      15.193 -36.774  15.433  1.00  0.00     0.152 C 
HETATM    9  C9  UNL     1      14.424 -37.941  15.987  1.00  0.00     0.034 C 
HETATM   10  C10 UNL     1      13.294 -38.373  15.104  1.00  0.00     0.002 C 
HETATM   11  C11 UNL     1      12.319 -37.216  14.979  1.00  0.00     0.002 C 
HETATM   12  C12 UNL     1      13.017 -35.947  14.530  1.00  0.00     0.024 C 
HETATM   13  C13 UNL     1      14.430 -36.304  14.188  1.00  0.00     0.159 C 
ENDROOT
BRANCH   6  14
HETATM   14  N2  UNL     1      16.790 -33.867  17.078  1.00  0.00    -0.351 N 
ATOM     15  H2  UNL     1      16.713 -32.851  17.115  1.00  0.00     0.163 HD
BRANCH  14  16
HETATM   16  C2  UNL     1      17.624 -34.564  18.018  1.00  0.00     0.085 C 
HETATM   17  C3  UNL     1      18.824 -35.205  17.382  1.00  0.00     0.025 C 
HETATM   18  C4  UNL     1      19.761 -34.115  16.860  1.00  0.00     0.002 C 
HETATM   19  C5  UNL     1      20.305 -33.427  18.109  1.00  0.00     0.000 C 
HETATM   20  C6  UNL     1      19.130 -32.698  18.740  1.00  0.00     0.002 C 
HETATM   21  C7  UNL     1      18.071 -33.686  19.138  1.00  0.00     0.025 C 
ENDBRANCH  14  16
ENDBRANCH   6  14
TORSDOF 2
ENDMDL
MODEL 15
REMARK VINA RESULT: -7.828479817      4.055      7.108
REMARK  2 active torsions:
REMARK  status: ('A' for Active; 'I' for Inactive)
REMARK    1  A    between atoms: C1_6  and  N2_7 
REMARK    2  A    between atoms: N2_7  and  C2_9 
ROOT
HETATM    1  O1  UNL     1      15.078 -30.385  15.926  1.00  0.00    -0.205 OA
HETATM    2  S1  UNL     1      16.137 -29.446  16.414  1.00  0.00     0.240 S 
HETATM    3  O2  UNL     1      16.647 -28.632  15.239  1.00  0.00    -0.205 OA
HETATM    4  N1  UNL     1      15.509 -28.317  17.558  1.00  0.00    -0.249 N 
ATOM      5  H1  UNL     1      14.708 -27.751  17.277  1.00  0.00     0.182 HD
HETATM    6  C1  UNL     1      15.978 -28.141  18.732  1.00  0.00     0.229 C 
HETATM    7  O3  UNL     1      17.051 -28.878  19.152  1.00  0.00    -0.315 OA
HETATM    8  C8  UNL     1      18.044 -29.312  18.248  1.00  0.00     0.152 C 
HETATM    9  C9  UNL     1      19.171 -30.027  18.939  1.00  0.00     0.034 C 
HETATM   10  C10 UNL     1      19.486 -31.358  18.328  1.00  0.00     0.002 C 
HETATM   11  C11 UNL     1      18.257 -32.240  18.453  1.00  0.00     0.002 C 
HETATM   12  C12 UNL     1      17.026 -31.562  17.882  1.00  0.00     0.024 C 
HETATM   13  C13 UNL     1      17.472 -30.296  17.220  1.00  0.00     0.159 C 
ENDROOT
BRANCH   6  14
HETATM   14  N2  UNL     1      15.327 -27.158  19.545  1.00  0.00    -0.351 N 
ATOM     15  H2  UNL     1      15.261 -27.287  20.555  1.00  0.00     0.163 HD
BRANCH  14  16
HETATM   16  C2  UNL     1      14.765 -25.989  18.928  1.00  0.00     0.085 C 
HETATM   17  C3  UNL     1      13.273 -25.903  19.070  1.00  0.00     0.025 C 
HETATM   18  C4  UNL     1      12.918 -25.696  20.543  1.00  0.00     0.002 C 
HETATM   19  C5  UNL     1      13.420 -24.295  20.880  1.00  0.00     0.000 C 
HETATM   20  C6  UNL     1      14.938 -24.361  20.823  1.00  0.00     0.002 C 
HETATM   21  C7  UNL     1      15.381 -24.728  19.435  1.00  0.00     0.025 C 
ENDBRANCH  14  16
ENDBRANCH   6  14
TORSDOF 2
ENDMDL
MODEL 16
REMARK VINA RESULT: -7.808153603      3.611      6.974
REMARK  2 active torsions:
REMARK  status: ('A' for Active; 'I' for Inactive)
REMARK    1  A    between atoms: C1_6  and  N2_7 
REMARK    2  A    between atoms: N2_7  and  C2_9 
ROOT
HETATM    1  O1  UNL     1      13.137 -34.296  14.221  1.00  0.00    -0.205 OA
HETATM    2  S1  UNL     1      14.294 -35.065  13.665  1.00  0.00     0.240 S 
HETATM    3  O2  UNL     1      14.495 -34.665  12.214  1.00  0.00    -0.205 OA
HETATM    4  N1  UNL     1      15.765 -34.687  14.487  1.00  0.00    -0.249 N 
ATOM      5  H1  UNL     1      16.045 -33.707  14.532  1.00  0.00     0.182 HD
HETATM    6  C1  UNL     1      16.525 -35.549  15.041  1.00  0.00     0.229 C 
HETATM    7  O3  UNL     1      16.187 -36.875  15.006  1.00  0.00    -0.315 OA
HETATM    8  C8  UNL     1      15.475 -37.422  13.917  1.00  0.00     0.152 C 
HETATM    9  C9  UNL     1      15.292 -38.909  14.047  1.00  0.00     0.034 C 
HETATM   10  C10 UNL     1      13.870 -39.344  13.871  1.00  0.00     0.002 C 
HETATM   11  C11 UNL     1      13.037 -38.697  14.963  1.00  0.00     0.002 C 
HETATM   12  C12 UNL     1      13.235 -37.194  14.995  1.00  0.00     0.024 C 
HETATM   13  C13 UNL     1      14.069 -36.821  13.809  1.00  0.00     0.159 C 
ENDROOT
BRANCH   6  14
HETATM   14  N2  UNL     1      17.707 -35.050  15.679  1.00  0.00    -0.351 N 
ATOM     15  H2  UNL     1      18.628 -35.279  15.304  1.00  0.00     0.163 HD
BRANCH  14  16
HETATM   16  C2  UNL     1      17.585 -34.228  16.849  1.00  0.00     0.085 C 
HETATM   17  C3  UNL     1      17.649 -35.007  18.131  1.00  0.00     0.025 C 
HETATM   18  C4  UNL     1      19.052 -35.598  18.292  1.00  0.00     0.002 C 
HETATM   19  C5  UNL     1      19.964 -34.396  18.522  1.00  0.00     0.000 C 
HETATM   20  C6  UNL     1      19.987 -33.621  17.215  1.00  0.00     0.002 C 
HETATM   21  C7  UNL     1      18.603 -33.138  16.885  1.00  0.00     0.025 C 
ENDBRANCH  14  16
ENDBRANCH   6  14
TORSDOF 2
ENDMDL
MODEL 17
REMARK VINA RESULT: -7.780362206      2.176      2.701
REMARK  2 active torsions:
REMARK  status: ('A' for Active; 'I' for Inactive)
REMARK    1  A    between atoms: C1_6  and  N2_7 
REMARK    2  A    between atoms: N2_7  and  C2_9 
ROOT
HETATM    1  O1  UNL     1      18.223 -30.845  16.083  1.00  0.00    -0.205 OA
HETATM    2  S1  UNL     1      17.268 -31.722  16.832  1.00  0.00     0.240 S 
HETATM    3  O2  UNL     1      16.332 -30.843  17.643  1.00  0.00    -0.205 OA
HETATM    4  N1  UNL     1      16.274 -32.642  15.762  1.00  0.00    -0.249 N 
ATOM      5  H1  UNL     1      15.734 -32.135  15.061  1.00  0.00     0.182 HD
HETATM    6  C1  UNL     1      16.169 -33.914  15.788  1.00  0.00     0.229 C 
HETATM    7  O3  UNL     1      16.876 -34.635  16.712  1.00  0.00    -0.315 OA
HETATM    8  C8  UNL     1      17.176 -34.105  17.984  1.00  0.00     0.152 C 
HETATM    9  C9  UNL     1      17.880 -35.100  18.865  1.00  0.00     0.034 C 
HETATM   10  C10 UNL     1      19.135 -34.559  19.476  1.00  0.00     0.002 C 
HETATM   11  C11 UNL     1      20.094 -34.202  18.355  1.00  0.00     0.002 C 
HETATM   12  C12 UNL     1      19.443 -33.282  17.340  1.00  0.00     0.024 C 
HETATM   13  C13 UNL     1      18.103 -32.888  17.879  1.00  0.00     0.159 C 
ENDROOT
BRANCH   6  14
HETATM   14  N2  UNL     1      15.295 -34.508  14.821  1.00  0.00    -0.351 N 
ATOM     15  H2  UNL     1      15.679 -35.029  14.033  1.00  0.00     0.163 HD
BRANCH  14  16
HETATM   16  C2  UNL     1      13.875 -34.363  14.969  1.00  0.00     0.085 C 
HETATM   17  C3  UNL     1      13.093 -35.039  13.880  1.00  0.00     0.025 C 
HETATM   18  C4  UNL     1      13.280 -36.553  13.990  1.00  0.00     0.002 C 
HETATM   19  C5  UNL     1      12.567 -36.948  15.281  1.00  0.00     0.000 C 
HETATM   20  C6  UNL     1      13.377 -36.345  16.417  1.00  0.00     0.002 C 
HETATM   21  C7  UNL     1      13.390 -34.848  16.295  1.00  0.00     0.025 C 
ENDBRANCH  14  16
ENDBRANCH   6  14
TORSDOF 2
ENDMDL
MODEL 18
REMARK VINA RESULT: -7.771333847      4.516      7.580
REMARK  2 active torsions:
REMARK  status: ('A' for Active; 'I' for Inactive)
REMARK    1  A    between atoms: C1_6  and  N2_7 
REMARK    2  A    between atoms: N2_7  and  C2_9 
ROOT
HETATM    1  O1  UNL     1      16.053 -39.910  14.889  1.00  0.00    -0.205 OA
HETATM    2  S1  UNL     1      15.351 -39.071  15.911  1.00  0.00     0.240 S 
HETATM    3  O2  UNL     1      14.608 -39.986  16.867  1.00  0.00    -0.205 OA
HETATM    4  N1  UNL     1      16.468 -38.164  16.865  1.00  0.00    -0.249 N 
ATOM      5  H1  UNL     1      17.205 -38.677  17.348  1.00  0.00     0.182 HD
HETATM    6  C1  UNL     1      16.433 -36.896  17.008  1.00  0.00     0.229 C 
HETATM    7  O3  UNL     1      15.461 -36.168  16.378  1.00  0.00    -0.315 OA
HETATM    8  C8  UNL     1      14.179 -36.706  16.139  1.00  0.00     0.152 C 
HETATM    9  C9  UNL     1      13.247 -35.704  15.516  1.00  0.00     0.034 C 
HETATM   10  C10 UNL     1      12.568 -36.217  14.284  1.00  0.00     0.002 C 
HETATM   11  C11 UNL     1      13.635 -36.533  13.251  1.00  0.00     0.002 C 
HETATM   12  C12 UNL     1      14.697 -37.457  13.815  1.00  0.00     0.024 C 
HETATM   13  C13 UNL     1      14.243 -37.896  15.172  1.00  0.00     0.159 C 
ENDROOT
BRANCH   6  14
HETATM   14  N2  UNL     1      17.443 -36.314  17.840  1.00  0.00    -0.351 N 
ATOM     15  H2  UNL     1      18.152 -36.904  18.278  1.00  0.00     0.163 HD
BRANCH  14  16
HETATM   16  C2  UNL     1      17.451 -34.894  18.054  1.00  0.00     0.085 C 
HETATM   17  C3  UNL     1      18.119 -34.492  19.337  1.00  0.00     0.025 C 
HETATM   18  C4  UNL     1      19.612 -34.817  19.252  1.00  0.00     0.002 C 
HETATM   19  C5  UNL     1      20.169 -33.854  18.206  1.00  0.00     0.000 C 
HETATM   20  C6  UNL     1      19.573 -34.281  16.874  1.00  0.00     0.002 C 
HETATM   21  C7  UNL     1      18.077 -34.153  16.920  1.00  0.00     0.025 C 
ENDBRANCH  14  16
ENDBRANCH   6  14
TORSDOF 2
ENDMDL
MODEL 19
REMARK VINA RESULT: -7.725634038      2.230      2.808
REMARK  2 active torsions:
REMARK  status: ('A' for Active; 'I' for Inactive)
REMARK    1  A    between atoms: C1_6  and  N2_7 
REMARK    2  A    between atoms: N2_7  and  C2_9 
ROOT
HETATM    1  O1  UNL     1      16.095 -31.245  18.866  1.00  0.00    -0.205 OA
HETATM    2  S1  UNL     1      16.426 -32.674  18.566  1.00  0.00     0.240 S 
HETATM    3  O2  UNL     1      16.111 -33.515  19.789  1.00  0.00    -0.205 OA
HETATM    4  N1  UNL     1      15.457 -33.295  17.279  1.00  0.00    -0.249 N 
ATOM      5  H1  UNL     1      14.444 -33.232  17.374  1.00  0.00     0.182 HD
HETATM    6  C1  UNL     1      15.923 -33.828  16.217  1.00  0.00     0.229 C 
HETATM    7  O3  UNL     1      17.276 -33.933  16.047  1.00  0.00    -0.315 OA
HETATM    8  C8  UNL     1      18.144 -34.105  17.146  1.00  0.00     0.152 C 
HETATM    9  C9  UNL     1      19.575 -34.286  16.720  1.00  0.00     0.034 C 
HETATM   10  C10 UNL     1      20.520 -33.366  17.429  1.00  0.00     0.002 C 
HETATM   11  C11 UNL     1      20.134 -31.937  17.093  1.00  0.00     0.002 C 
HETATM   12  C12 UNL     1      18.668 -31.676  17.382  1.00  0.00     0.024 C 
HETATM   13  C13 UNL     1      18.120 -32.884  18.074  1.00  0.00     0.159 C 
ENDROOT
BRANCH   6  14
HETATM   14  N2  UNL     1      14.966 -34.289  15.255  1.00  0.00    -0.351 N 
ATOM     15  H2  UNL     1      14.262 -33.651  14.884  1.00  0.00     0.163 HD
BRANCH  14  16
HETATM   16  C2  UNL     1      15.007 -35.656  14.817  1.00  0.00     0.085 C 
HETATM   17  C3  UNL     1      14.668 -36.636  15.903  1.00  0.00     0.025 C 
HETATM   18  C4  UNL     1      13.200 -36.463  16.299  1.00  0.00     0.002 C 
HETATM   19  C5  UNL     1      12.404 -36.938  15.086  1.00  0.00     0.000 C 
HETATM   20  C6  UNL     1      12.660 -35.923  13.984  1.00  0.00     0.002 C 
HETATM   21  C7  UNL     1      14.122 -35.901  13.640  1.00  0.00     0.025 C 
ENDBRANCH  14  16
ENDBRANCH   6  14
TORSDOF 2
ENDMDL
MODEL 20
REMARK VINA RESULT: -7.711273516      3.200      6.833
REMARK  2 active torsions:
REMARK  status: ('A' for Active; 'I' for Inactive)
REMARK    1  A    between atoms: C1_6  and  N2_7 
REMARK    2  A    between atoms: N2_7  and  C2_9 
ROOT
HETATM    1  O1  UNL     1      16.096 -37.858  16.082  1.00  0.00    -0.205 OA
HETATM    2  S1  UNL     1      15.299 -36.591  16.060  1.00  0.00     0.240 S 
HETATM    3  O2  UNL     1      13.966 -36.840  16.742  1.00  0.00    -0.205 OA
HETATM    4  N1  UNL     1      16.079 -35.333  16.950  1.00  0.00    -0.249 N 
ATOM      5  H1  UNL     1      16.324 -35.521  17.922  1.00  0.00     0.182 HD
HETATM    6  C1  UNL     1      16.368 -34.185  16.475  1.00  0.00     0.229 C 
HETATM    7  O3  UNL     1      16.058 -33.890  15.175  1.00  0.00    -0.315 OA
HETATM    8  C8  UNL     1      14.928 -34.451  14.544  1.00  0.00     0.152 C 
HETATM    9  C9  UNL     1      14.730 -33.920  13.151  1.00  0.00     0.034 C 
HETATM   10  C10 UNL     1      14.562 -35.001  12.129  1.00  0.00     0.002 C 
HETATM   11  C11 UNL     1      15.829 -35.838  12.110  1.00  0.00     0.002 C 
HETATM   12  C12 UNL     1      16.186 -36.336  13.497  1.00  0.00     0.024 C 
HETATM   13  C13 UNL     1      15.059 -35.973  14.413  1.00  0.00     0.159 C 
ENDROOT
BRANCH   6  14
HETATM   14  N2  UNL     1      17.016 -33.266  17.362  1.00  0.00    -0.351 N 
ATOM     15  H2  UNL     1      16.565 -32.385  17.610  1.00  0.00     0.163 HD
BRANCH  14  16
HETATM   16  C2  UNL     1      18.307 -33.593  17.899  1.00  0.00     0.085 C 
HETATM   17  C3  UNL     1      19.429 -32.836  17.248  1.00  0.00     0.025 C 
HETATM   18  C4  UNL     1      19.300 -31.350  17.590  1.00  0.00     0.002 C 
HETATM   19  C5  UNL     1      19.589 -31.261  19.086  1.00  0.00     0.000 C 
HETATM   20  C6  UNL     1      18.430 -31.951  19.786  1.00  0.00     0.002 C 
HETATM   21  C7  UNL     1      18.374 -33.395  19.377  1.00  0.00     0.025 C 
ENDBRANCH  14  16
ENDBRANCH   6  14
TORSDOF 2
ENDMDL
