MODEL 1
REMARK VINA RESULT: -6.019923056      0.000      0.000
REMARK  14 active torsions:
REMARK  status: ('A' for Active; 'I' for Inactive)
REMARK       I    between atoms: C1_2  and  N1_3 
REMARK       I    between atoms: C1_2  and  N2_12 
REMARK    1  A    between atoms: N1_3  and  C2_5 
REMARK    2  A    between atoms: C2_5  and  C3_6 
REMARK    3  A    between atoms: C3_6  and  P1_7 
REMARK    4  A    between atoms: P1_7  and  O2_8 
REMARK    5  A    between atoms: P1_7  and  O3_10 
REMARK    6  A    between atoms: N2_12  and  C4_14 
REMARK    7  A    between atoms: C6_16  and  O4_17 
REMARK    8  A    between atoms: C6_16  and  C9_26 
REMARK    9  A    between atoms: O4_17  and  C7_18 
REMARK   10  A    between atoms: C7_18  and  C8_19 
REMARK   11  A    between atoms: C8_19  and  O5_20 
REMARK   12  A    between atoms: O5_20  and  P2_21 
REMARK   13  A    between atoms: P2_21  and  O6_22 
REMARK   14  A    between atoms: P2_21  and  O7_24 
ROOT
HETATM    1  C4  UNL     1      14.515   1.888   1.189  1.00  0.00     0.227 C 
HETATM    2  C5  UNL     1      13.483   2.925   1.348  1.00  0.00     0.103 C 
HETATM    3  C6  UNL     1      14.028   4.208   2.005  1.00  0.00     0.154 C 
HETATM    4  C10 UNL     1      15.195   4.606   1.175  1.00  0.00     0.076 C 
HETATM    5  C11 UNL     1      16.194   3.510   1.008  1.00  0.00     0.174 C 
HETATM    6  O10 UNL     1      15.779   2.255   0.937  1.00  0.00    -0.366 OA
ENDROOT
BRANCH   1   7
HETATM    7  N2  UNL     1      14.082   0.986   0.133  1.00  0.00    -0.316 N 
HETATM    8  C1  UNL     1      14.875  -0.109  -0.268  1.00  0.00     0.318 C 
HETATM    9  O1  UNL     1      15.968  -0.317   0.286  1.00  0.00    -0.247 OA
HETATM   10  N1  UNL     1      14.437  -0.974  -1.295  1.00  0.00    -0.343 N 
ATOM     11  H1  UNL     1      13.540  -0.798  -1.746  1.00  0.00     0.164 HD
ATOM     12  H2  UNL     1      13.187   1.150  -0.327  1.00  0.00     0.166 HD
BRANCH  10  13
HETATM   13  C2  UNL     1      15.240  -2.113  -1.725  1.00  0.00     0.133 C 
BRANCH  13  14
HETATM   14  C3  UNL     1      14.724  -3.335  -1.001  1.00  0.00     0.113 C 
BRANCH  14  15
HETATM   15  P1  UNL     1      16.152  -4.071  -0.067  1.00  0.00     0.164 P 
BRANCH  15  16
HETATM   16  O2  UNL     1      17.167  -2.838   0.605  1.00  0.00    -0.350 OA
ATOM     17  H2  UNL     1      17.927  -2.679   0.057  1.00  0.00     0.217 HD
ENDBRANCH  15  16
BRANCH  15  18
HETATM   18  O3  UNL     1      17.072  -5.129  -1.094  1.00  0.00    -0.350 OA
ATOM     19  H3  UNL     1      16.896  -6.038  -0.878  1.00  0.00     0.217 HD
ENDBRANCH  15  18
ENDBRANCH  14  15
ENDBRANCH  13  14
ENDBRANCH  10  13
ENDBRANCH   1   7
BRANCH   3  20
HETATM   20  O4  UNL     1      13.055   5.159   1.978  1.00  0.00    -0.367 OA
BRANCH  20  21
HETATM   21  C7  UNL     1      13.373   6.275   1.253  1.00  0.00     0.196 C 
BRANCH  21  22
HETATM   22  C8  UNL     1      13.275   7.549   2.079  1.00  0.00     0.204 C 
BRANCH  22  23
HETATM   23  O5  UNL     1      14.547   8.110   2.148  1.00  0.00    -0.316 OA
BRANCH  23  24
HETATM   24  P2  UNL     1      15.276   7.899   3.686  1.00  0.00     0.329 P 
BRANCH  24  25
HETATM   25  O6  UNL     1      14.251   7.109   4.822  1.00  0.00    -0.328 OA
ATOM     26  H6  UNL     1      14.729   6.644   5.499  1.00  0.00     0.219 HD
ENDBRANCH  24  25
BRANCH  24  27
HETATM   27  O7  UNL     1      16.782   7.051   3.590  1.00  0.00    -0.328 OA
ATOM     28  H7  UNL     1      17.436   7.407   4.180  1.00  0.00     0.219 HD
ENDBRANCH  24  27
ENDBRANCH  23  24
ENDBRANCH  22  23
ENDBRANCH  21  22
ENDBRANCH  20  21
ENDBRANCH   3  20
BRANCH   3  29
HETATM   29  C9  UNL     1      14.364   3.810   3.396  1.00  0.00     0.209 C 
HETATM   30  O8  UNL     1      13.746   2.864   3.921  1.00  0.00    -0.646 OA
HETATM   31  O9  UNL     1      15.339   4.434   4.158  1.00  0.00    -0.646 OA
ENDBRANCH   3  29
TORSDOF 14
ENDMDL
MODEL 2
REMARK VINA RESULT: -5.857711954      3.798      6.720
REMARK  14 active torsions:
REMARK  status: ('A' for Active; 'I' for Inactive)
REMARK       I    between atoms: C1_2  and  N1_3 
REMARK       I    between atoms: C1_2  and  N2_12 
REMARK    1  A    between atoms: N1_3  and  C2_5 
REMARK    2  A    between atoms: C2_5  and  C3_6 
REMARK    3  A    between atoms: C3_6  and  P1_7 
REMARK    4  A    between atoms: P1_7  and  O2_8 
REMARK    5  A    between atoms: P1_7  and  O3_10 
REMARK    6  A    between atoms: N2_12  and  C4_14 
REMARK    7  A    between atoms: C6_16  and  O4_17 
REMARK    8  A    between atoms: C6_16  and  C9_26 
REMARK    9  A    between atoms: O4_17  and  C7_18 
REMARK   10  A    between atoms: C7_18  and  C8_19 
REMARK   11  A    between atoms: C8_19  and  O5_20 
REMARK   12  A    between atoms: O5_20  and  P2_21 
REMARK   13  A    between atoms: P2_21  and  O6_22 
REMARK   14  A    between atoms: P2_21  and  O7_24 
ROOT
HETATM    1  C4  UNL     1      13.354   1.716   3.289  1.00  0.00     0.227 C 
HETATM    2  C5  UNL     1      14.302   2.798   2.980  1.00  0.00     0.103 C 
HETATM    3  C6  UNL     1      15.315   2.405   1.888  1.00  0.00     0.154 C 
HETATM    4  C10 UNL     1      14.492   1.945   0.739  1.00  0.00     0.076 C 
HETATM    5  C11 UNL     1      13.518   0.876   1.109  1.00  0.00     0.174 C 
HETATM    6  O10 UNL     1      12.958   0.892   2.309  1.00  0.00    -0.366 OA
ENDROOT
BRANCH   1   7
HETATM    7  N2  UNL     1      12.170   2.316   3.885  1.00  0.00    -0.316 N 
HETATM    8  C1  UNL     1      12.132   2.664   5.252  1.00  0.00     0.318 C 
HETATM    9  O1  UNL     1      13.125   2.457   5.970  1.00  0.00    -0.247 OA
HETATM   10  N1  UNL     1      10.974   3.246   5.812  1.00  0.00    -0.343 N 
ATOM     11  H1  UNL     1      10.163   3.413   5.217  1.00  0.00     0.164 HD
ATOM     12  H2  UNL     1      11.351   2.489   3.303  1.00  0.00     0.166 HD
BRANCH  10  13
HETATM   13  C2  UNL     1      10.913   3.613   7.222  1.00  0.00     0.133 C 
BRANCH  13  14
HETATM   14  C3  UNL     1      11.176   5.098   7.318  1.00  0.00     0.113 C 
BRANCH  14  15
HETATM   15  P1  UNL     1      12.848   5.316   8.101  1.00  0.00     0.164 P 
BRANCH  15  16
HETATM   16  O2  UNL     1      12.963   6.834   8.928  1.00  0.00    -0.350 OA
ATOM     17  H2  UNL     1      13.468   6.754   9.729  1.00  0.00     0.217 HD
ENDBRANCH  15  16
BRANCH  15  18
HETATM   18  O3  UNL     1      14.103   5.172   6.907  1.00  0.00    -0.350 OA
ATOM     19  H3  UNL     1      13.771   5.395   6.045  1.00  0.00     0.217 HD
ENDBRANCH  15  18
ENDBRANCH  14  15
ENDBRANCH  13  14
ENDBRANCH  10  13
ENDBRANCH   1   7
BRANCH   3  20
HETATM   20  O4  UNL     1      16.052   3.501   1.560  1.00  0.00    -0.367 OA
BRANCH  20  21
HETATM   21  C7  UNL     1      15.312   4.602   1.227  1.00  0.00     0.196 C 
BRANCH  21  22
HETATM   22  C8  UNL     1      15.752   5.846   1.985  1.00  0.00     0.204 C 
BRANCH  22  23
HETATM   23  O5  UNL     1      14.674   6.281   2.750  1.00  0.00    -0.316 OA
BRANCH  23  24
HETATM   24  P2  UNL     1      15.057   7.655   3.704  1.00  0.00     0.329 P 
BRANCH  24  25
HETATM   25  O6  UNL     1      14.337   7.618   5.268  1.00  0.00    -0.328 OA
ATOM     26  H6  UNL     1      13.400   7.770   5.253  1.00  0.00     0.219 HD
ENDBRANCH  24  25
BRANCH  24  27
HETATM   27  O7  UNL     1      16.763   7.891   3.866  1.00  0.00    -0.328 OA
ATOM     28  H7  UNL     1      17.191   7.159   4.294  1.00  0.00     0.219 HD
ENDBRANCH  24  27
ENDBRANCH  23  24
ENDBRANCH  22  23
ENDBRANCH  21  22
ENDBRANCH  20  21
ENDBRANCH   3  20
BRANCH   3  29
HETATM   29  C9  UNL     1      16.155   1.349   2.510  1.00  0.00     0.209 C 
HETATM   30  O8  UNL     1      16.741   1.596   3.582  1.00  0.00    -0.646 OA
HETATM   31  O9  UNL     1      16.329   0.087   1.966  1.00  0.00    -0.646 OA
ENDBRANCH   3  29
TORSDOF 14
ENDMDL
MODEL 3
REMARK VINA RESULT: -5.856384808      1.655      2.076
REMARK  14 active torsions:
REMARK  status: ('A' for Active; 'I' for Inactive)
REMARK       I    between atoms: C1_2  and  N1_3 
REMARK       I    between atoms: C1_2  and  N2_12 
REMARK    1  A    between atoms: N1_3  and  C2_5 
REMARK    2  A    between atoms: C2_5  and  C3_6 
REMARK    3  A    between atoms: C3_6  and  P1_7 
REMARK    4  A    between atoms: P1_7  and  O2_8 
REMARK    5  A    between atoms: P1_7  and  O3_10 
REMARK    6  A    between atoms: N2_12  and  C4_14 
REMARK    7  A    between atoms: C6_16  and  O4_17 
REMARK    8  A    between atoms: C6_16  and  C9_26 
REMARK    9  A    between atoms: O4_17  and  C7_18 
REMARK   10  A    between atoms: C7_18  and  C8_19 
REMARK   11  A    between atoms: C8_19  and  O5_20 
REMARK   12  A    between atoms: O5_20  and  P2_21 
REMARK   13  A    between atoms: P2_21  and  O6_22 
REMARK   14  A    between atoms: P2_21  and  O7_24 
ROOT
HETATM    1  C4  UNL     1      14.562   2.292   1.050  1.00  0.00     0.227 C 
HETATM    2  C5  UNL     1      13.255   2.659   1.616  1.00  0.00     0.103 C 
HETATM    3  C6  UNL     1      13.317   3.946   2.461  1.00  0.00     0.154 C 
HETATM    4  C10 UNL     1      13.926   4.969   1.571  1.00  0.00     0.076 C 
HETATM    5  C11 UNL     1      15.230   4.535   0.989  1.00  0.00     0.174 C 
HETATM    6  O10 UNL     1      15.417   3.259   0.689  1.00  0.00    -0.366 OA
ENDROOT
BRANCH   1   7
HETATM    7  N2  UNL     1      14.324   1.440  -0.106  1.00  0.00    -0.316 N 
HETATM    8  C1  UNL     1      15.099   0.285  -0.339  1.00  0.00     0.318 C 
HETATM    9  O1  UNL     1      16.006  -0.022   0.453  1.00  0.00    -0.247 OA
HETATM   10  N1  UNL     1      14.851  -0.529  -1.466  1.00  0.00    -0.343 N 
ATOM     11  H1  UNL     1      14.105  -0.272  -2.112  1.00  0.00     0.164 HD
ATOM     12  H2  UNL     1      13.582   1.684  -0.761  1.00  0.00     0.166 HD
BRANCH  10  13
HETATM   13  C2  UNL     1      15.639  -1.728  -1.727  1.00  0.00     0.133 C 
BRANCH  13  14
HETATM   14  C3  UNL     1      14.853  -2.911  -1.210  1.00  0.00     0.113 C 
BRANCH  14  15
HETATM   15  P1  UNL     1      16.003  -3.922  -0.155  1.00  0.00     0.164 P 
BRANCH  15  16
HETATM   16  O2  UNL     1      17.200  -2.925   0.605  1.00  0.00    -0.350 OA
ATOM     17  H2  UNL     1      18.054  -3.340   0.591  1.00  0.00     0.217 HD
ENDBRANCH  15  16
BRANCH  15  18
HETATM   18  O3  UNL     1      16.755  -5.172  -1.098  1.00  0.00    -0.350 OA
ATOM     19  H3  UNL     1      16.205  -5.947  -1.124  1.00  0.00     0.217 HD
ENDBRANCH  15  18
ENDBRANCH  14  15
ENDBRANCH  13  14
ENDBRANCH  10  13
ENDBRANCH   1   7
BRANCH   3  20
HETATM   20  O4  UNL     1      12.051   4.295   2.820  1.00  0.00    -0.367 OA
BRANCH  20  21
HETATM   21  C7  UNL     1      11.978   5.348   3.690  1.00  0.00     0.196 C 
BRANCH  21  22
HETATM   22  C8  UNL     1      11.226   4.994   4.965  1.00  0.00     0.204 C 
BRANCH  22  23
HETATM   23  O5  UNL     1      11.417   6.031   5.873  1.00  0.00    -0.316 OA
BRANCH  23  24
HETATM   24  P2  UNL     1      12.967   5.985   6.607  1.00  0.00     0.329 P 
BRANCH  24  25
HETATM   25  O6  UNL     1      13.585   4.387   6.789  1.00  0.00    -0.328 OA
ATOM     26  H6  UNL     1      14.069   4.084   6.030  1.00  0.00     0.219 HD
ENDBRANCH  24  25
BRANCH  24  27
HETATM   27  O7  UNL     1      14.126   6.952   5.763  1.00  0.00    -0.328 OA
ATOM     28  H7  UNL     1      15.013   6.626   5.864  1.00  0.00     0.219 HD
ENDBRANCH  24  27
ENDBRANCH  23  24
ENDBRANCH  22  23
ENDBRANCH  21  22
ENDBRANCH  20  21
ENDBRANCH   3  20
BRANCH   3  29
HETATM   29  C9  UNL     1      14.140   3.586   3.645  1.00  0.00     0.209 C 
HETATM   30  O8  UNL     1      13.919   2.508   4.229  1.00  0.00    -0.646 OA
HETATM   31  O9  UNL     1      15.154   4.385   4.145  1.00  0.00    -0.646 OA
ENDBRANCH   3  29
TORSDOF 14
ENDMDL
MODEL 4
REMARK VINA RESULT: -5.813153917      3.753      5.617
REMARK  14 active torsions:
REMARK  status: ('A' for Active; 'I' for Inactive)
REMARK       I    between atoms: C1_2  and  N1_3 
REMARK       I    between atoms: C1_2  and  N2_12 
REMARK    1  A    between atoms: N1_3  and  C2_5 
REMARK    2  A    between atoms: C2_5  and  C3_6 
REMARK    3  A    between atoms: C3_6  and  P1_7 
REMARK    4  A    between atoms: P1_7  and  O2_8 
REMARK    5  A    between atoms: P1_7  and  O3_10 
REMARK    6  A    between atoms: N2_12  and  C4_14 
REMARK    7  A    between atoms: C6_16  and  O4_17 
REMARK    8  A    between atoms: C6_16  and  C9_26 
REMARK    9  A    between atoms: O4_17  and  C7_18 
REMARK   10  A    between atoms: C7_18  and  C8_19 
REMARK   11  A    between atoms: C8_19  and  O5_20 
REMARK   12  A    between atoms: O5_20  and  P2_21 
REMARK   13  A    between atoms: P2_21  and  O6_22 
REMARK   14  A    between atoms: P2_21  and  O7_24 
ROOT
HETATM    1  C4  UNL     1      13.341   1.154   0.728  1.00  0.00     0.227 C 
HETATM    2  C5  UNL     1      13.946   2.363   1.308  1.00  0.00     0.103 C 
HETATM    3  C6  UNL     1      15.470   2.231   1.494  1.00  0.00     0.154 C 
HETATM    4  C10 UNL     1      15.995   1.846   0.158  1.00  0.00     0.076 C 
HETATM    5  C11 UNL     1      15.323   0.639  -0.408  1.00  0.00     0.174 C 
HETATM    6  O10 UNL     1      14.039   0.432  -0.160  1.00  0.00    -0.366 OA
ENDROOT
BRANCH   1   7
HETATM    7  N2  UNL     1      12.080   1.537   0.113  1.00  0.00    -0.316 N 
HETATM    8  C1  UNL     1      10.844   1.259   0.734  1.00  0.00     0.318 C 
HETATM    9  O1  UNL     1      10.822   0.673   1.830  1.00  0.00    -0.247 OA
HETATM   10  N1  UNL     1       9.631   1.640   0.121  1.00  0.00    -0.343 N 
ATOM     11  H1  UNL     1       9.656   2.120  -0.779  1.00  0.00     0.164 HD
ATOM     12  H2  UNL     1      12.089   2.018  -0.787  1.00  0.00     0.166 HD
BRANCH  10  13
HETATM   13  C2  UNL     1       8.343   1.363   0.745  1.00  0.00     0.133 C 
BRANCH  13  14
HETATM   14  C3  UNL     1       7.270   1.616  -0.290  1.00  0.00     0.113 C 
BRANCH  14  15
HETATM   15  P1  UNL     1       7.796   3.096  -1.283  1.00  0.00     0.164 P 
BRANCH  15  16
HETATM   16  O2  UNL     1       8.864   2.644  -2.570  1.00  0.00    -0.350 OA
ATOM     17  H2  UNL     1       8.996   3.363  -3.178  1.00  0.00     0.217 HD
ENDBRANCH  15  16
BRANCH  15  18
HETATM   18  O3  UNL     1       8.541   4.285  -0.257  1.00  0.00    -0.350 OA
ATOM     19  H3  UNL     1       7.996   5.062  -0.196  1.00  0.00     0.217 HD
ENDBRANCH  15  18
ENDBRANCH  14  15
ENDBRANCH  13  14
ENDBRANCH  10  13
ENDBRANCH   1   7
BRANCH   3  20
HETATM   20  O4  UNL     1      15.967   3.435   1.892  1.00  0.00    -0.367 OA
BRANCH  20  21
HETATM   21  C7  UNL     1      15.138   4.496   1.656  1.00  0.00     0.196 C 
BRANCH  21  22
HETATM   22  C8  UNL     1      15.184   5.527   2.775  1.00  0.00     0.204 C 
BRANCH  22  23
HETATM   23  O5  UNL     1      15.338   4.843   3.977  1.00  0.00    -0.316 OA
BRANCH  23  24
HETATM   24  P2  UNL     1      13.871   4.722   4.857  1.00  0.00     0.329 P 
BRANCH  24  25
HETATM   25  O6  UNL     1      13.127   3.173   4.729  1.00  0.00    -0.328 OA
ATOM     26  H6  UNL     1      13.263   2.628   5.496  1.00  0.00     0.219 HD
ENDBRANCH  24  25
BRANCH  24  27
HETATM   27  O7  UNL     1      14.069   5.124   6.528  1.00  0.00    -0.328 OA
ATOM     28  H7  UNL     1      13.265   5.441   6.922  1.00  0.00     0.219 HD
ENDBRANCH  24  27
ENDBRANCH  23  24
ENDBRANCH  22  23
ENDBRANCH  21  22
ENDBRANCH  20  21
ENDBRANCH   3  20
BRANCH   3  29
HETATM   29  C9  UNL     1      15.638   1.197   2.547  1.00  0.00     0.209 C 
HETATM   30  O8  UNL     1      14.915   1.244   3.561  1.00  0.00    -0.646 OA
HETATM   31  O9  UNL     1      16.561   0.167   2.471  1.00  0.00    -0.646 OA
ENDBRANCH   3  29
TORSDOF 14
ENDMDL
MODEL 5
REMARK VINA RESULT: -5.797366325      3.820      5.383
REMARK  14 active torsions:
REMARK  status: ('A' for Active; 'I' for Inactive)
REMARK       I    between atoms: C1_2  and  N1_3 
REMARK       I    between atoms: C1_2  and  N2_12 
REMARK    1  A    between atoms: N1_3  and  C2_5 
REMARK    2  A    between atoms: C2_5  and  C3_6 
REMARK    3  A    between atoms: C3_6  and  P1_7 
REMARK    4  A    between atoms: P1_7  and  O2_8 
REMARK    5  A    between atoms: P1_7  and  O3_10 
REMARK    6  A    between atoms: N2_12  and  C4_14 
REMARK    7  A    between atoms: C6_16  and  O4_17 
REMARK    8  A    between atoms: C6_16  and  C9_26 
REMARK    9  A    between atoms: O4_17  and  C7_18 
REMARK   10  A    between atoms: C7_18  and  C8_19 
REMARK   11  A    between atoms: C8_19  and  O5_20 
REMARK   12  A    between atoms: O5_20  and  P2_21 
REMARK   13  A    between atoms: P2_21  and  O6_22 
REMARK   14  A    between atoms: P2_21  and  O7_24 
ROOT
HETATM    1  C4  UNL     1      13.349   1.036   0.669  1.00  0.00     0.227 C 
HETATM    2  C5  UNL     1      13.915   2.322   1.103  1.00  0.00     0.103 C 
HETATM    3  C6  UNL     1      15.444   2.265   1.285  1.00  0.00     0.154 C 
HETATM    4  C10 UNL     1      15.971   1.751  -0.007  1.00  0.00     0.076 C 
HETATM    5  C11 UNL     1      15.339   0.466  -0.426  1.00  0.00     0.174 C 
HETATM    6  O10 UNL     1      14.065   0.244  -0.142  1.00  0.00    -0.366 OA
ENDROOT
BRANCH   1   7
HETATM    7  N2  UNL     1      12.070   1.305   0.029  1.00  0.00    -0.316 N 
HETATM    8  C1  UNL     1      10.869   1.327   0.769  1.00  0.00     0.318 C 
HETATM    9  O1  UNL     1      10.893   1.114   1.994  1.00  0.00    -0.247 OA
HETATM   10  N1  UNL     1       9.638   1.591   0.130  1.00  0.00    -0.343 N 
ATOM     11  H1  UNL     1       9.625   1.765  -0.874  1.00  0.00     0.164 HD
ATOM     12  H2  UNL     1      12.041   1.480  -0.974  1.00  0.00     0.166 HD
BRANCH  10  13
HETATM   13  C2  UNL     1       8.384   1.620   0.875  1.00  0.00     0.133 C 
BRANCH  13  14
HETATM   14  C3  UNL     1       7.474   2.617   0.198  1.00  0.00     0.113 C 
BRANCH  14  15
HETATM   15  P1  UNL     1       7.735   2.452  -1.635  1.00  0.00     0.164 P 
BRANCH  15  16
HETATM   16  O2  UNL     1       7.724   0.789  -2.125  1.00  0.00    -0.350 OA
ATOM     17  H2  UNL     1       8.211   0.663  -2.931  1.00  0.00     0.217 HD
ENDBRANCH  15  16
BRANCH  15  18
HETATM   18  O3  UNL     1       9.219   3.221  -2.111  1.00  0.00    -0.350 OA
ATOM     19  H3  UNL     1       9.569   2.814  -2.896  1.00  0.00     0.217 HD
ENDBRANCH  15  18
ENDBRANCH  14  15
ENDBRANCH  13  14
ENDBRANCH  10  13
ENDBRANCH   1   7
BRANCH   3  20
HETATM   20  O4  UNL     1      15.901   3.521   1.539  1.00  0.00    -0.367 OA
BRANCH  20  21
HETATM   21  C7  UNL     1      15.202   4.517   0.914  1.00  0.00     0.196 C 
BRANCH  21  22
HETATM   22  C8  UNL     1      15.375   5.864   1.600  1.00  0.00     0.204 C 
BRANCH  22  23
HETATM   23  O5  UNL     1      14.161   6.199   2.192  1.00  0.00    -0.316 OA
BRANCH  23  24
HETATM   24  P2  UNL     1      14.109   5.796   3.859  1.00  0.00     0.329 P 
BRANCH  24  25
HETATM   25  O6  UNL     1      15.185   4.520   4.283  1.00  0.00    -0.328 OA
ATOM     26  H6  UNL     1      15.464   4.550   5.190  1.00  0.00     0.219 HD
ENDBRANCH  24  25
BRANCH  24  27
HETATM   27  O7  UNL     1      14.414   7.161   4.877  1.00  0.00    -0.328 OA
ATOM     28  H7  UNL     1      15.342   7.308   5.019  1.00  0.00     0.219 HD
ENDBRANCH  24  27
ENDBRANCH  23  24
ENDBRANCH  22  23
ENDBRANCH  21  22
ENDBRANCH  20  21
ENDBRANCH   3  20
BRANCH   3  29
HETATM   29  C9  UNL     1      15.657   1.361   2.444  1.00  0.00     0.209 C 
HETATM   30  O8  UNL     1      15.077   1.610   3.519  1.00  0.00    -0.646 OA
HETATM   31  O9  UNL     1      16.472   0.242   2.405  1.00  0.00    -0.646 OA
ENDBRANCH   3  29
TORSDOF 14
ENDMDL
