MODEL 1
REMARK VINA RESULT: -11.224796184      0.000      0.000
REMARK  6 active torsions:
REMARK  status: ('A' for Active; 'I' for Inactive)
REMARK    1  A    between atoms: N1_4  and  C4_5 
REMARK    2  A    between atoms: C6_7  and  N2_8 
REMARK       I    between atoms: N2_8  and  C7_10 
REMARK    3  A    between atoms: C7_10  and  C8_12 
REMARK    4  A    between atoms: C15_19  and  N3_20 
REMARK    5  A    between atoms: N3_20  and  C16_22 
REMARK    6  A    between atoms: C22_32  and  C23_33 
ROOT
HETATM    1  N2  UNL     1      35.894   3.857 -39.884  1.00  0.00    -0.323 N 
ATOM      2  H2  UNL     1      36.579   3.992 -40.627  1.00  0.00     0.169 HD
HETATM    3  C7  UNL     1      36.021   2.781 -39.012  1.00  0.00     0.256 C 
HETATM    4  O1  UNL     1      35.152   2.593 -38.092  1.00  0.00    -0.267 OA
ENDROOT
BRANCH   3   5
HETATM    5  C8  UNL     1      37.108   1.822 -39.058  1.00  0.00     0.032 A 
HETATM    6  C9  UNL     1      38.355   2.036 -39.573  1.00  0.00     0.017 A 
HETATM    7  C10 UNL     1      39.332   1.026 -39.584  1.00  0.00     0.009 A 
HETATM    8  C11 UNL     1      39.086  -0.236 -39.073  1.00  0.00    -0.050 A 
HETATM    9  C12 UNL     1      37.834  -0.438 -38.554  1.00  0.00    -0.049 A 
HETATM   10  C20 UNL     1      39.877  -1.516 -38.982  1.00  0.00     0.064 C 
HETATM   11  C13 UNL     1      36.876   0.531 -38.538  1.00  0.00     0.024 A 
HETATM   12  C14 UNL     1      37.807  -1.845 -38.020  1.00  0.00     0.064 C 
HETATM   13  C15 UNL     1      38.711  -2.536 -38.975  1.00  0.00     0.090 C 
BRANCH  13  14
HETATM   14  N3  UNL     1      39.220  -3.787 -38.543  1.00  0.00    -0.383 N 
ATOM     15  H3  UNL     1      39.706  -4.346 -39.243  1.00  0.00     0.160 HD
BRANCH  14  16
HETATM   16  C16 UNL     1      39.128  -4.341 -37.247  1.00  0.00     0.059 A 
HETATM   17  C17 UNL     1      38.102  -5.158 -36.838  1.00  0.00     0.119 A 
HETATM   18  N4  UNL     1      38.051  -5.651 -35.565  1.00  0.00    -0.360 N 
HETATM   19  C18 UNL     1      38.999  -5.353 -34.684  1.00  0.00     0.180 A 
ATOM     20  H4  UNL     1      37.277  -6.254 -35.288  1.00  0.00     0.166 HD
HETATM   21  N5  UNL     1      40.010  -4.559 -35.056  1.00  0.00    -0.360 N 
HETATM   22  C19 UNL     1      40.089  -4.049 -36.317  1.00  0.00     0.119 A 
ATOM     23  H5  UNL     1      40.739  -4.329 -34.379  1.00  0.00     0.166 HD
ENDBRANCH  14  16
ENDBRANCH  13  14
ENDBRANCH   3   5
BRANCH   1  24
HETATM   24  C6  UNL     1      34.811   4.769 -39.742  1.00  0.00     0.037 A 
HETATM   25  C5  UNL     1      34.348   5.503 -40.823  1.00  0.00     0.059 A 
HETATM   26  C4  UNL     1      33.314   6.406 -40.724  1.00  0.00     0.042 A 
HETATM   27  C24 UNL     1      32.697   6.597 -39.479  1.00  0.00     0.046 A 
HETATM   28  C22 UNL     1      33.123   5.899 -38.407  1.00  0.00     0.052 A 
HETATM   29  C21 UNL     1      34.171   4.997 -38.550  1.00  0.00     0.046 A 
BRANCH  26  30
HETATM   30  N1  UNL     1      32.834   7.146 -41.852  1.00  0.00    -0.317 N 
HETATM   31  C3  UNL     1      31.782   8.005 -41.815  1.00  0.00     0.122 A 
HETATM   32  C2  UNL     1      31.579   8.535 -43.069  1.00  0.00     0.022 A 
HETATM   33  C1  UNL     1      30.523   9.514 -43.442  1.00  0.00     0.069 C 
HETATM   34  N6  UNL     1      32.510   7.996 -43.859  1.00  0.00    -0.354 N 
HETATM   35  C25 UNL     1      33.264   7.157 -43.114  1.00  0.00     0.188 A 
ATOM     36  H6  UNL     1      32.631   8.184 -44.854  1.00  0.00     0.166 HD
ENDBRANCH  26  30
BRANCH  28  37
HETATM   37  C23 UNL     1      32.462   6.100 -37.071  1.00  0.00     0.417 C 
HETATM   38  F1  UNL     1      33.403   6.119 -36.082  1.00  0.00    -0.166 F 
HETATM   39  F2  UNL     1      31.758   7.284 -37.103  1.00  0.00    -0.166 F 
HETATM   40  F3  UNL     1      31.514   5.096 -36.905  1.00  0.00    -0.166 F 
ENDBRANCH  28  37
ENDBRANCH   1  24
TORSDOF 6
ENDMDL
MODEL 2
REMARK VINA RESULT: -11.004262246      1.619      2.186
REMARK  6 active torsions:
REMARK  status: ('A' for Active; 'I' for Inactive)
REMARK    1  A    between atoms: N1_4  and  C4_5 
REMARK    2  A    between atoms: C6_7  and  N2_8 
REMARK       I    between atoms: N2_8  and  C7_10 
REMARK    3  A    between atoms: C7_10  and  C8_12 
REMARK    4  A    between atoms: C15_19  and  N3_20 
REMARK    5  A    between atoms: N3_20  and  C16_22 
REMARK    6  A    between atoms: C22_32  and  C23_33 
ROOT
HETATM    1  N2  UNL     1      35.782   3.953 -39.912  1.00  0.00    -0.323 N 
ATOM      2  H2  UNL     1      36.427   4.099 -40.688  1.00  0.00     0.169 HD
HETATM    3  C7  UNL     1      35.978   2.888 -39.039  1.00  0.00     0.256 C 
HETATM    4  O1  UNL     1      35.158   2.686 -38.078  1.00  0.00    -0.267 OA
ENDROOT
BRANCH   3   5
HETATM    5  C8  UNL     1      37.085   1.956 -39.131  1.00  0.00     0.032 A 
HETATM    6  C9  UNL     1      38.351   2.242 -39.555  1.00  0.00     0.017 A 
HETATM    7  C10 UNL     1      39.348   1.254 -39.622  1.00  0.00     0.009 A 
HETATM    8  C11 UNL     1      39.103  -0.059 -39.262  1.00  0.00    -0.050 A 
HETATM    9  C12 UNL     1      37.831  -0.334 -38.832  1.00  0.00    -0.049 A 
HETATM   10  C20 UNL     1      39.914  -1.330 -39.266  1.00  0.00     0.064 C 
HETATM   11  C13 UNL     1      36.853   0.613 -38.764  1.00  0.00     0.024 A 
HETATM   12  C14 UNL     1      37.806  -1.791 -38.453  1.00  0.00     0.064 C 
HETATM   13  C15 UNL     1      38.770  -2.361 -39.428  1.00  0.00     0.090 C 
BRANCH  13  14
HETATM   14  N3  UNL     1      39.283  -3.644 -39.106  1.00  0.00    -0.383 N 
ATOM     15  H3  UNL     1      39.846  -3.708 -38.259  1.00  0.00     0.160 HD
BRANCH  14  16
HETATM   16  C16 UNL     1      39.097  -4.841 -39.832  1.00  0.00     0.059 A 
HETATM   17  C17 UNL     1      39.468  -6.079 -39.368  1.00  0.00     0.119 A 
HETATM   18  N4  UNL     1      39.283  -7.205 -40.120  1.00  0.00    -0.360 N 
HETATM   19  C18 UNL     1      38.734  -7.130 -41.328  1.00  0.00     0.180 A 
ATOM     20  H4  UNL     1      39.569  -8.112 -39.752  1.00  0.00     0.166 HD
HETATM   21  N5  UNL     1      38.364  -5.936 -41.805  1.00  0.00    -0.360 N 
HETATM   22  C19 UNL     1      38.537  -4.794 -41.079  1.00  0.00     0.119 A 
ATOM     23  H5  UNL     1      37.943  -5.878 -42.732  1.00  0.00     0.166 HD
ENDBRANCH  14  16
ENDBRANCH  13  14
ENDBRANCH   3   5
BRANCH   1  24
HETATM   24  C6  UNL     1      34.684   4.839 -39.725  1.00  0.00     0.037 A 
HETATM   25  C5  UNL     1      34.175   5.579 -40.781  1.00  0.00     0.059 A 
HETATM   26  C4  UNL     1      33.125   6.458 -40.638  1.00  0.00     0.042 A 
HETATM   27  C24 UNL     1      32.541   6.617 -39.373  1.00  0.00     0.046 A 
HETATM   28  C22 UNL     1      33.012   5.913 -38.325  1.00  0.00     0.052 A 
HETATM   29  C21 UNL     1      34.075   5.035 -38.512  1.00  0.00     0.046 A 
BRANCH  26  30
HETATM   30  N1  UNL     1      32.596   7.204 -41.740  1.00  0.00    -0.317 N 
HETATM   31  C3  UNL     1      31.313   7.640 -41.826  1.00  0.00     0.122 A 
HETATM   32  C2  UNL     1      31.135   8.309 -43.016  1.00  0.00     0.022 A 
HETATM   33  C1  UNL     1      29.871   8.936 -43.484  1.00  0.00     0.069 C 
HETATM   34  N6  UNL     1      32.312   8.276 -43.644  1.00  0.00    -0.354 N 
HETATM   35  C25 UNL     1      33.190   7.604 -42.864  1.00  0.00     0.188 A 
ATOM     36  H6  UNL     1      32.515   8.685 -44.556  1.00  0.00     0.166 HD
ENDBRANCH  26  30
BRANCH  28  37
HETATM   37  C23 UNL     1      32.387   6.080 -36.967  1.00  0.00     0.417 C 
HETATM   38  F1  UNL     1      33.354   6.090 -36.004  1.00  0.00    -0.166 F 
HETATM   39  F2  UNL     1      31.669   7.255 -36.956  1.00  0.00    -0.166 F 
HETATM   40  F3  UNL     1      31.455   5.061 -36.795  1.00  0.00    -0.166 F 
ENDBRANCH  28  37
ENDBRANCH   1  24
TORSDOF 6
ENDMDL
MODEL 3
REMARK VINA RESULT: -10.916886836      1.052      1.438
REMARK  6 active torsions:
REMARK  status: ('A' for Active; 'I' for Inactive)
REMARK    1  A    between atoms: N1_4  and  C4_5 
REMARK    2  A    between atoms: C6_7  and  N2_8 
REMARK       I    between atoms: N2_8  and  C7_10 
REMARK    3  A    between atoms: C7_10  and  C8_12 
REMARK    4  A    between atoms: C15_19  and  N3_20 
REMARK    5  A    between atoms: N3_20  and  C16_22 
REMARK    6  A    between atoms: C22_32  and  C23_33 
ROOT
HETATM    1  N2  UNL     1      36.054   3.862 -39.762  1.00  0.00    -0.323 N 
ATOM      2  H2  UNL     1      36.809   4.106 -40.402  1.00  0.00     0.169 HD
HETATM    3  C7  UNL     1      36.135   2.698 -39.006  1.00  0.00     0.256 C 
HETATM    4  O1  UNL     1      35.179   2.374 -38.220  1.00  0.00    -0.267 OA
ENDROOT
BRANCH   3   5
HETATM    5  C8  UNL     1      37.265   1.789 -39.032  1.00  0.00     0.032 A 
HETATM    6  C9  UNL     1      38.478   2.023 -39.614  1.00  0.00     0.017 A 
HETATM    7  C10 UNL     1      39.502   1.062 -39.597  1.00  0.00     0.009 A 
HETATM    8  C11 UNL     1      39.339  -0.172 -38.990  1.00  0.00    -0.050 A 
HETATM    9  C12 UNL     1      38.120  -0.394 -38.405  1.00  0.00    -0.049 A 
HETATM   10  C20 UNL     1      40.195  -1.404 -38.844  1.00  0.00     0.064 C 
HETATM   11  C13 UNL     1      37.116   0.528 -38.416  1.00  0.00     0.024 A 
HETATM   12  C14 UNL     1      38.182  -1.759 -37.775  1.00  0.00     0.064 C 
HETATM   13  C15 UNL     1      39.081  -2.473 -38.718  1.00  0.00     0.090 C 
BRANCH  13  14
HETATM   14  N3  UNL     1      39.668  -3.666 -38.223  1.00  0.00    -0.383 N 
ATOM     15  H3  UNL     1      40.539  -3.562 -37.704  1.00  0.00     0.160 HD
BRANCH  14  16
HETATM   16  C16 UNL     1      39.175  -4.981 -38.371  1.00  0.00     0.059 A 
HETATM   17  C17 UNL     1      38.280  -5.562 -37.506  1.00  0.00     0.119 A 
HETATM   18  N4  UNL     1      37.851  -6.847 -37.685  1.00  0.00    -0.360 N 
HETATM   19  C18 UNL     1      38.288  -7.571 -38.709  1.00  0.00     0.180 A 
ATOM     20  H4  UNL     1      37.188  -7.254 -37.026  1.00  0.00     0.166 HD
HETATM   21  N5  UNL     1      39.161  -7.030 -39.567  1.00  0.00    -0.360 N 
HETATM   22  C19 UNL     1      39.610  -5.752 -39.415  1.00  0.00     0.119 A 
ATOM     23  H5  UNL     1      39.497  -7.586 -40.354  1.00  0.00     0.166 HD
ENDBRANCH  14  16
ENDBRANCH  13  14
ENDBRANCH   3   5
BRANCH   1  24
HETATM   24  C6  UNL     1      34.919   4.713 -39.646  1.00  0.00     0.037 A 
HETATM   25  C5  UNL     1      34.395   5.362 -40.754  1.00  0.00     0.059 A 
HETATM   26  C4  UNL     1      33.309   6.204 -40.681  1.00  0.00     0.042 A 
HETATM   27  C24 UNL     1      32.702   6.422 -39.436  1.00  0.00     0.046 A 
HETATM   28  C22 UNL     1      33.186   5.807 -38.338  1.00  0.00     0.052 A 
HETATM   29  C21 UNL     1      34.285   4.963 -38.455  1.00  0.00     0.046 A 
BRANCH  26  30
HETATM   30  N1  UNL     1      32.766   6.855 -41.836  1.00  0.00    -0.317 N 
HETATM   31  C3  UNL     1      31.924   7.919 -41.792  1.00  0.00     0.122 A 
HETATM   32  C2  UNL     1      31.584   8.287 -43.074  1.00  0.00     0.022 A 
HETATM   33  C1  UNL     1      30.680   9.407 -43.449  1.00  0.00     0.069 C 
HETATM   34  N6  UNL     1      32.222   7.444 -43.888  1.00  0.00    -0.354 N 
HETATM   35  C25 UNL     1      32.936   6.581 -43.130  1.00  0.00     0.188 A 
ATOM     36  H6  UNL     1      32.180   7.450 -44.907  1.00  0.00     0.166 HD
ENDBRANCH  26  30
BRANCH  28  37
HETATM   37  C23 UNL     1      32.536   6.037 -37.002  1.00  0.00     0.417 C 
HETATM   38  F1  UNL     1      33.486   6.101 -36.024  1.00  0.00    -0.166 F 
HETATM   39  F2  UNL     1      31.811   7.207 -37.062  1.00  0.00    -0.166 F 
HETATM   40  F3  UNL     1      31.607   5.022 -36.796  1.00  0.00    -0.166 F 
ENDBRANCH  28  37
ENDBRANCH   1  24
TORSDOF 6
ENDMDL
MODEL 4
REMARK VINA RESULT: -10.600063274      4.040     11.434
REMARK  6 active torsions:
REMARK  status: ('A' for Active; 'I' for Inactive)
REMARK    1  A    between atoms: N1_4  and  C4_5 
REMARK    2  A    between atoms: C6_7  and  N2_8 
REMARK       I    between atoms: N2_8  and  C7_10 
REMARK    3  A    between atoms: C7_10  and  C8_12 
REMARK    4  A    between atoms: C15_19  and  N3_20 
REMARK    5  A    between atoms: N3_20  and  C16_22 
REMARK    6  A    between atoms: C22_32  and  C23_33 
ROOT
HETATM    1  N2  UNL     1      37.077   2.362 -39.944  1.00  0.00    -0.323 N 
ATOM      2  H2  UNL     1      37.452   3.120 -40.513  1.00  0.00     0.169 HD
HETATM    3  C7  UNL     1      35.953   2.577 -39.154  1.00  0.00     0.256 C 
HETATM    4  O1  UNL     1      35.492   1.636 -38.420  1.00  0.00    -0.267 OA
ENDROOT
BRANCH   3   5
HETATM    5  C8  UNL     1      35.227   3.831 -39.100  1.00  0.00     0.032 A 
HETATM    6  C9  UNL     1      34.779   4.460 -37.973  1.00  0.00     0.017 A 
HETATM    7  C10 UNL     1      34.065   5.668 -38.035  1.00  0.00     0.009 A 
HETATM    8  C11 UNL     1      33.779   6.289 -39.239  1.00  0.00    -0.050 A 
HETATM    9  C12 UNL     1      34.237   5.652 -40.364  1.00  0.00    -0.049 A 
HETATM   10  C20 UNL     1      33.015   7.524 -39.641  1.00  0.00     0.064 C 
HETATM   11  C13 UNL     1      34.929   4.479 -40.318  1.00  0.00     0.024 A 
HETATM   12  C14 UNL     1      33.859   6.517 -41.536  1.00  0.00     0.064 C 
HETATM   13  C15 UNL     1      32.577   7.100 -41.065  1.00  0.00     0.090 C 
BRANCH  13  14
HETATM   14  N3  UNL     1      32.139   8.259 -41.755  1.00  0.00    -0.383 N 
ATOM     15  H3  UNL     1      32.691   9.105 -41.619  1.00  0.00     0.160 HD
BRANCH  14  16
HETATM   16  C16 UNL     1      31.022   8.367 -42.613  1.00  0.00     0.059 A 
HETATM   17  C17 UNL     1      31.051   9.008 -43.827  1.00  0.00     0.119 A 
HETATM   18  N4  UNL     1      29.934   9.101 -44.609  1.00  0.00    -0.360 N 
HETATM   19  C18 UNL     1      28.784   8.568 -44.213  1.00  0.00     0.180 A 
ATOM     20  H4  UNL     1      29.984   9.585 -45.505  1.00  0.00     0.166 HD
HETATM   21  N5  UNL     1      28.727   7.938 -43.033  1.00  0.00    -0.360 N 
HETATM   22  C19 UNL     1      29.823   7.830 -42.229  1.00  0.00     0.119 A 
ATOM     23  H5  UNL     1      27.844   7.529 -42.729  1.00  0.00     0.166 HD
ENDBRANCH  14  16
ENDBRANCH  13  14
ENDBRANCH   3   5
BRANCH   1  24
HETATM   24  C6  UNL     1      37.706   1.085 -39.960  1.00  0.00     0.037 A 
HETATM   25  C5  UNL     1      37.398   0.149 -40.935  1.00  0.00     0.059 A 
HETATM   26  C4  UNL     1      37.972  -1.101 -40.977  1.00  0.00     0.042 A 
HETATM   27  C24 UNL     1      38.910  -1.450 -39.994  1.00  0.00     0.046 A 
HETATM   28  C22 UNL     1      39.232  -0.563 -39.031  1.00  0.00     0.052 A 
HETATM   29  C21 UNL     1      38.628   0.689 -39.025  1.00  0.00     0.046 A 
BRANCH  26  30
HETATM   30  N1  UNL     1      37.659  -2.054 -41.999  1.00  0.00    -0.317 N 
HETATM   31  C3  UNL     1      38.102  -3.338 -42.014  1.00  0.00     0.122 A 
HETATM   32  C2  UNL     1      37.629  -3.973 -43.140  1.00  0.00     0.022 A 
HETATM   33  C1  UNL     1      37.892  -5.386 -43.520  1.00  0.00     0.069 C 
HETATM   34  N6  UNL     1      36.901  -3.070 -43.801  1.00  0.00    -0.354 N 
HETATM   35  C25 UNL     1      36.925  -1.912 -43.103  1.00  0.00     0.188 A 
ATOM     36  H6  UNL     1      36.411  -3.227 -44.682  1.00  0.00     0.166 HD
ENDBRANCH  26  30
BRANCH  28  37
HETATM   37  C23 UNL     1      40.239  -0.934 -37.977  1.00  0.00     0.417 C 
HETATM   38  F1  UNL     1      39.723  -0.699 -36.735  1.00  0.00    -0.166 F 
HETATM   39  F2  UNL     1      40.566  -2.263 -38.131  1.00  0.00    -0.166 F 
HETATM   40  F3  UNL     1      41.406  -0.221 -38.228  1.00  0.00    -0.166 F 
ENDBRANCH  28  37
ENDBRANCH   1  24
TORSDOF 6
ENDMDL
MODEL 5
REMARK VINA RESULT: -10.585989422      3.744     11.964
REMARK  6 active torsions:
REMARK  status: ('A' for Active; 'I' for Inactive)
REMARK    1  A    between atoms: N1_4  and  C4_5 
REMARK    2  A    between atoms: C6_7  and  N2_8 
REMARK       I    between atoms: N2_8  and  C7_10 
REMARK    3  A    between atoms: C7_10  and  C8_12 
REMARK    4  A    between atoms: C15_19  and  N3_20 
REMARK    5  A    between atoms: N3_20  and  C16_22 
REMARK    6  A    between atoms: C22_32  and  C23_33 
ROOT
HETATM    1  N2  UNL     1      35.731   1.022 -39.087  1.00  0.00    -0.323 N 
ATOM      2  H2  UNL     1      34.728   0.884 -38.964  1.00  0.00     0.169 HD
HETATM    3  C7  UNL     1      36.247   2.310 -39.182  1.00  0.00     0.256 C 
HETATM    4  O1  UNL     1      37.501   2.488 -39.361  1.00  0.00    -0.267 OA
ENDROOT
BRANCH   3   5
HETATM    5  C8  UNL     1      35.446   3.515 -39.083  1.00  0.00     0.032 A 
HETATM    6  C9  UNL     1      34.886   4.022 -37.945  1.00  0.00     0.017 A 
HETATM    7  C10 UNL     1      34.109   5.193 -37.964  1.00  0.00     0.009 A 
HETATM    8  C11 UNL     1      33.870   5.895 -39.133  1.00  0.00    -0.050 A 
HETATM    9  C12 UNL     1      34.442   5.380 -40.267  1.00  0.00    -0.049 A 
HETATM   10  C20 UNL     1      33.065   7.118 -39.490  1.00  0.00     0.064 C 
HETATM   11  C13 UNL     1      35.196   4.245 -40.264  1.00  0.00     0.024 A 
HETATM   12  C14 UNL     1      34.096   6.318 -41.392  1.00  0.00     0.064 C 
HETATM   13  C15 UNL     1      32.752   6.792 -40.972  1.00  0.00     0.090 C 
BRANCH  13  14
HETATM   14  N3  UNL     1      32.296   7.980 -41.599  1.00  0.00    -0.383 N 
ATOM     15  H3  UNL     1      32.824   8.829 -41.402  1.00  0.00     0.160 HD
BRANCH  14  16
HETATM   16  C16 UNL     1      31.190   8.112 -42.467  1.00  0.00     0.059 A 
HETATM   17  C17 UNL     1      31.268   8.659 -43.724  1.00  0.00     0.119 A 
HETATM   18  N4  UNL     1      30.162   8.782 -44.516  1.00  0.00    -0.360 N 
HETATM   19  C18 UNL     1      28.973   8.371 -44.088  1.00  0.00     0.180 A 
ATOM     20  H4  UNL     1      30.248   9.194 -45.445  1.00  0.00     0.166 HD
HETATM   21  N5  UNL     1      28.868   7.835 -42.866  1.00  0.00    -0.360 N 
HETATM   22  C19 UNL     1      29.952   7.700 -42.051  1.00  0.00     0.119 A 
ATOM     23  H5  UNL     1      27.955   7.520 -42.537  1.00  0.00     0.166 HD
ENDBRANCH  14  16
ENDBRANCH  13  14
ENDBRANCH   3   5
BRANCH   1  24
HETATM   24  C6  UNL     1      36.598  -0.104 -39.162  1.00  0.00     0.037 A 
HETATM   25  C5  UNL     1      37.152  -0.657 -38.018  1.00  0.00     0.059 A 
HETATM   26  C4  UNL     1      38.007  -1.735 -38.049  1.00  0.00     0.042 A 
HETATM   27  C24 UNL     1      38.336  -2.304 -39.288  1.00  0.00     0.046 A 
HETATM   28  C22 UNL     1      37.815  -1.791 -40.420  1.00  0.00     0.052 A 
HETATM   29  C21 UNL     1      36.956  -0.700 -40.345  1.00  0.00     0.046 A 
BRANCH  26  30
HETATM   30  N1  UNL     1      38.559  -2.309 -36.859  1.00  0.00    -0.317 N 
HETATM   31  C3  UNL     1      38.467  -3.622 -36.525  1.00  0.00     0.122 A 
HETATM   32  C2  UNL     1      39.091  -3.833 -35.316  1.00  0.00     0.022 A 
HETATM   33  C1  UNL     1      39.206  -5.136 -34.609  1.00  0.00     0.069 C 
HETATM   34  N6  UNL     1      39.559  -2.646 -34.924  1.00  0.00    -0.354 N 
HETATM   35  C25 UNL     1      39.232  -1.729 -35.864  1.00  0.00     0.188 A 
ATOM     36  H6  UNL     1      40.075  -2.461 -34.064  1.00  0.00     0.166 HD
ENDBRANCH  26  30
BRANCH  28  37
HETATM   37  C23 UNL     1      38.165  -2.400 -41.750  1.00  0.00     0.417 C 
HETATM   38  F1  UNL     1      39.293  -1.815 -42.250  1.00  0.00    -0.166 F 
HETATM   39  F2  UNL     1      38.348  -3.754 -41.578  1.00  0.00    -0.166 F 
HETATM   40  F3  UNL     1      37.063  -2.266 -42.587  1.00  0.00    -0.166 F 
ENDBRANCH  28  37
ENDBRANCH   1  24
TORSDOF 6
ENDMDL
MODEL 6
REMARK VINA RESULT: -10.349827019      0.935      1.209
REMARK  6 active torsions:
REMARK  status: ('A' for Active; 'I' for Inactive)
REMARK    1  A    between atoms: N1_4  and  C4_5 
REMARK    2  A    between atoms: C6_7  and  N2_8 
REMARK       I    between atoms: N2_8  and  C7_10 
REMARK    3  A    between atoms: C7_10  and  C8_12 
REMARK    4  A    between atoms: C15_19  and  N3_20 
REMARK    5  A    between atoms: N3_20  and  C16_22 
REMARK    6  A    between atoms: C22_32  and  C23_33 
ROOT
HETATM    1  N2  UNL     1      36.041   3.395 -39.895  1.00  0.00    -0.323 N 
ATOM      2  H2  UNL     1      36.726   3.503 -40.642  1.00  0.00     0.169 HD
HETATM    3  C7  UNL     1      36.059   2.256 -39.097  1.00  0.00     0.256 C 
HETATM    4  O1  UNL     1      35.186   2.104 -38.173  1.00  0.00    -0.267 OA
ENDROOT
BRANCH   3   5
HETATM    5  C8  UNL     1      37.030   1.187 -39.229  1.00  0.00     0.032 A 
HETATM    6  C9  UNL     1      37.680   0.821 -40.373  1.00  0.00     0.017 A 
HETATM    7  C10 UNL     1      38.593  -0.247 -40.393  1.00  0.00     0.009 A 
HETATM    8  C11 UNL     1      38.884  -0.984 -39.258  1.00  0.00    -0.050 A 
HETATM    9  C12 UNL     1      38.230  -0.604 -38.115  1.00  0.00    -0.049 A 
HETATM   10  C20 UNL     1      39.749  -2.183 -38.964  1.00  0.00     0.064 C 
HETATM   11  C13 UNL     1      37.341   0.428 -38.080  1.00  0.00     0.024 A 
HETATM   12  C14 UNL     1      38.729  -1.499 -37.012  1.00  0.00     0.064 C 
HETATM   13  C15 UNL     1      38.977  -2.762 -37.753  1.00  0.00     0.090 C 
BRANCH  13  14
HETATM   14  N3  UNL     1      39.817  -3.701 -37.101  1.00  0.00    -0.383 N 
ATOM     15  H3  UNL     1      40.814  -3.638 -37.307  1.00  0.00     0.160 HD
BRANCH  14  16
HETATM   16  C16 UNL     1      39.422  -4.712 -36.198  1.00  0.00     0.059 A 
HETATM   17  C17 UNL     1      39.132  -6.001 -36.575  1.00  0.00     0.119 A 
HETATM   18  N4  UNL     1      38.735  -6.936 -35.662  1.00  0.00    -0.360 N 
HETATM   19  C18 UNL     1      38.621  -6.622 -34.376  1.00  0.00     0.180 A 
ATOM     20  H4  UNL     1      38.524  -7.885 -35.970  1.00  0.00     0.166 HD
HETATM   21  N5  UNL     1      38.897  -5.374 -33.981  1.00  0.00    -0.360 N 
HETATM   22  C19 UNL     1      39.293  -4.417 -34.868  1.00  0.00     0.119 A 
ATOM     23  H5  UNL     1      38.808  -5.132 -32.994  1.00  0.00     0.166 HD
ENDBRANCH  14  16
ENDBRANCH  13  14
ENDBRANCH   3   5
BRANCH   1  24
HETATM   24  C6  UNL     1      35.069   4.410 -39.670  1.00  0.00     0.037 A 
HETATM   25  C5  UNL     1      34.575   5.172 -40.719  1.00  0.00     0.059 A 
HETATM   26  C4  UNL     1      33.647   6.172 -40.541  1.00  0.00     0.042 A 
HETATM   27  C24 UNL     1      33.176   6.439 -39.248  1.00  0.00     0.046 A 
HETATM   28  C22 UNL     1      33.635   5.718 -38.206  1.00  0.00     0.052 A 
HETATM   29  C21 UNL     1      34.573   4.715 -38.428  1.00  0.00     0.046 A 
BRANCH  26  30
HETATM   30  N1  UNL     1      33.132   6.940 -41.634  1.00  0.00    -0.317 N 
HETATM   31  C3  UNL     1      32.071   7.784 -41.547  1.00  0.00     0.122 A 
HETATM   32  C2  UNL     1      31.832   8.350 -42.779  1.00  0.00     0.022 A 
HETATM   33  C1  UNL     1      30.757   9.326 -43.098  1.00  0.00     0.069 C 
HETATM   34  N6  UNL     1      32.751   7.846 -43.607  1.00  0.00    -0.354 N 
HETATM   35  C25 UNL     1      33.533   6.994 -42.905  1.00  0.00     0.188 A 
ATOM     36  H6  UNL     1      32.847   8.066 -44.598  1.00  0.00     0.166 HD
ENDBRANCH  26  30
BRANCH  28  37
HETATM   37  C23 UNL     1      33.130   6.000 -36.818  1.00  0.00     0.417 C 
HETATM   38  F1  UNL     1      32.102   6.897 -36.867  1.00  0.00    -0.166 F 
HETATM   39  F2  UNL     1      32.721   4.814 -36.249  1.00  0.00    -0.166 F 
HETATM   40  F3  UNL     1      34.204   6.441 -36.051  1.00  0.00    -0.166 F 
ENDBRANCH  28  37
ENDBRANCH   1  24
TORSDOF 6
ENDMDL
MODEL 7
REMARK VINA RESULT: -10.334418515      3.852     11.280
REMARK  6 active torsions:
REMARK  status: ('A' for Active; 'I' for Inactive)
REMARK    1  A    between atoms: N1_4  and  C4_5 
REMARK    2  A    between atoms: C6_7  and  N2_8 
REMARK       I    between atoms: N2_8  and  C7_10 
REMARK    3  A    between atoms: C7_10  and  C8_12 
REMARK    4  A    between atoms: C15_19  and  N3_20 
REMARK    5  A    between atoms: N3_20  and  C16_22 
REMARK    6  A    between atoms: C22_32  and  C23_33 
ROOT
HETATM    1  N2  UNL     1      35.758   1.036 -39.049  1.00  0.00    -0.323 N 
ATOM      2  H2  UNL     1      34.764   0.890 -38.876  1.00  0.00     0.169 HD
HETATM    3  C7  UNL     1      36.254   2.326 -39.198  1.00  0.00     0.256 C 
HETATM    4  O1  UNL     1      37.496   2.515 -39.439  1.00  0.00    -0.267 OA
ENDROOT
BRANCH   3   5
HETATM    5  C8  UNL     1      35.444   3.525 -39.090  1.00  0.00     0.032 A 
HETATM    6  C9  UNL     1      34.872   4.015 -37.951  1.00  0.00     0.017 A 
HETATM    7  C10 UNL     1      34.087   5.180 -37.962  1.00  0.00     0.009 A 
HETATM    8  C11 UNL     1      33.852   5.895 -39.124  1.00  0.00    -0.050 A 
HETATM    9  C12 UNL     1      34.435   5.397 -40.260  1.00  0.00    -0.049 A 
HETATM   10  C20 UNL     1      33.040   7.116 -39.473  1.00  0.00     0.064 C 
HETATM   11  C13 UNL     1      35.197   4.267 -40.265  1.00  0.00     0.024 A 
HETATM   12  C14 UNL     1      34.090   6.345 -41.376  1.00  0.00     0.064 C 
HETATM   13  C15 UNL     1      32.740   6.805 -40.960  1.00  0.00     0.090 C 
BRANCH  13  14
HETATM   14  N3  UNL     1      32.281   7.997 -41.576  1.00  0.00    -0.383 N 
ATOM     15  H3  UNL     1      32.797   8.849 -41.360  1.00  0.00     0.160 HD
BRANCH  14  16
HETATM   16  C16 UNL     1      31.185   8.130 -42.458  1.00  0.00     0.059 A 
HETATM   17  C17 UNL     1      31.282   8.665 -43.719  1.00  0.00     0.119 A 
HETATM   18  N4  UNL     1      30.185   8.790 -44.524  1.00  0.00    -0.360 N 
HETATM   19  C18 UNL     1      28.989   8.392 -44.106  1.00  0.00     0.180 A 
ATOM     20  H4  UNL     1      30.286   9.193 -45.456  1.00  0.00     0.166 HD
HETATM   21  N5  UNL     1      28.866   7.868 -42.881  1.00  0.00    -0.360 N 
HETATM   22  C19 UNL     1      29.940   7.732 -42.053  1.00  0.00     0.119 A 
ATOM     23  H5  UNL     1      27.947   7.563 -42.559  1.00  0.00     0.166 HD
ENDBRANCH  14  16
ENDBRANCH  13  14
ENDBRANCH   3   5
BRANCH   1  24
HETATM   24  C6  UNL     1      36.635  -0.082 -39.138  1.00  0.00     0.037 A 
HETATM   25  C5  UNL     1      36.905  -0.685 -40.357  1.00  0.00     0.059 A 
HETATM   26  C4  UNL     1      37.735  -1.776 -40.482  1.00  0.00     0.042 A 
HETATM   27  C24 UNL     1      38.336  -2.307 -39.332  1.00  0.00     0.046 A 
HETATM   28  C22 UNL     1      38.095  -1.745 -38.130  1.00  0.00     0.052 A 
HETATM   29  C21 UNL     1      37.250  -0.643 -38.047  1.00  0.00     0.046 A 
BRANCH  26  30
HETATM   30  N1  UNL     1      38.019  -2.379 -41.749  1.00  0.00    -0.317 N 
HETATM   31  C3  UNL     1      37.941  -1.734 -42.941  1.00  0.00     0.122 A 
HETATM   32  C2  UNL     1      38.265  -2.606 -43.957  1.00  0.00     0.022 A 
HETATM   33  C1  UNL     1      38.296  -2.283 -45.408  1.00  0.00     0.069 C 
HETATM   34  N6  UNL     1      38.539  -3.775 -43.373  1.00  0.00    -0.354 N 
HETATM   35  C25 UNL     1      38.388  -3.628 -42.037  1.00  0.00     0.188 A 
ATOM     36  H6  UNL     1      38.815  -4.632 -43.852  1.00  0.00     0.166 HD
ENDBRANCH  26  30
BRANCH  28  37
HETATM   37  C23 UNL     1      38.740  -2.310 -36.895  1.00  0.00     0.417 C 
HETATM   38  F1  UNL     1      38.761  -1.369 -35.906  1.00  0.00    -0.166 F 
HETATM   39  F2  UNL     1      38.030  -3.423 -36.500  1.00  0.00    -0.166 F 
HETATM   40  F3  UNL     1      40.006  -2.768 -37.242  1.00  0.00    -0.166 F 
ENDBRANCH  28  37
ENDBRANCH   1  24
TORSDOF 6
ENDMDL
MODEL 8
REMARK VINA RESULT: -10.311354141      2.904      3.969
REMARK  6 active torsions:
REMARK  status: ('A' for Active; 'I' for Inactive)
REMARK    1  A    between atoms: N1_4  and  C4_5 
REMARK    2  A    between atoms: C6_7  and  N2_8 
REMARK       I    between atoms: N2_8  and  C7_10 
REMARK    3  A    between atoms: C7_10  and  C8_12 
REMARK    4  A    between atoms: C15_19  and  N3_20 
REMARK    5  A    between atoms: N3_20  and  C16_22 
REMARK    6  A    between atoms: C22_32  and  C23_33 
ROOT
HETATM    1  N2  UNL     1      35.724   3.756 -40.035  1.00  0.00    -0.323 N 
ATOM      2  H2  UNL     1      36.290   3.886 -40.873  1.00  0.00     0.169 HD
HETATM    3  C7  UNL     1      35.929   2.645 -39.225  1.00  0.00     0.256 C 
HETATM    4  O1  UNL     1      35.205   2.464 -38.186  1.00  0.00    -0.267 OA
ENDROOT
BRANCH   3   5
HETATM    5  C8  UNL     1      36.943   1.637 -39.470  1.00  0.00     0.032 A 
HETATM    6  C9  UNL     1      38.235   1.665 -39.027  1.00  0.00     0.017 A 
HETATM    7  C10 UNL     1      39.144   0.641 -39.339  1.00  0.00     0.009 A 
HETATM    8  C11 UNL     1      38.782  -0.451 -40.109  1.00  0.00    -0.050 A 
HETATM    9  C12 UNL     1      37.482  -0.471 -40.544  1.00  0.00    -0.049 A 
HETATM   10  C20 UNL     1      39.508  -1.656 -40.650  1.00  0.00     0.064 C 
HETATM   11  C13 UNL     1      36.590   0.516 -40.251  1.00  0.00     0.024 A 
HETATM   12  C14 UNL     1      37.301  -1.753 -41.311  1.00  0.00     0.064 C 
HETATM   13  C15 UNL     1      38.650  -1.927 -41.910  1.00  0.00     0.090 C 
BRANCH  13  14
HETATM   14  N3  UNL     1      38.950  -3.231 -42.378  1.00  0.00    -0.383 N 
ATOM     15  H3  UNL     1      39.545  -3.803 -41.779  1.00  0.00     0.160 HD
BRANCH  14  16
HETATM   16  C16 UNL     1      38.514  -3.824 -43.583  1.00  0.00     0.059 A 
HETATM   17  C17 UNL     1      37.366  -4.570 -43.695  1.00  0.00     0.119 A 
HETATM   18  N4  UNL     1      37.001  -5.138 -44.883  1.00  0.00    -0.360 N 
HETATM   19  C18 UNL     1      37.750  -4.981 -45.968  1.00  0.00     0.180 A 
ATOM     20  H4  UNL     1      36.144  -5.688 -44.937  1.00  0.00     0.166 HD
HETATM   21  N5  UNL     1      38.875  -4.259 -45.887  1.00  0.00    -0.360 N 
HETATM   22  C19 UNL     1      39.268  -3.682 -44.717  1.00  0.00     0.119 A 
ATOM     23  H5  UNL     1      39.450  -4.139 -46.720  1.00  0.00     0.166 HD
ENDBRANCH  14  16
ENDBRANCH  13  14
ENDBRANCH   3   5
BRANCH   1  24
HETATM   24  C6  UNL     1      34.726   4.713 -39.698  1.00  0.00     0.037 A 
HETATM   25  C5  UNL     1      34.118   5.487 -40.674  1.00  0.00     0.059 A 
HETATM   26  C4  UNL     1      33.160   6.433 -40.387  1.00  0.00     0.042 A 
HETATM   27  C24 UNL     1      32.779   6.629 -39.052  1.00  0.00     0.046 A 
HETATM   28  C22 UNL     1      33.351   5.894 -38.078  1.00  0.00     0.052 A 
HETATM   29  C21 UNL     1      34.315   4.948 -38.410  1.00  0.00     0.046 A 
BRANCH  26  30
HETATM   30  N1  UNL     1      32.527   7.214 -41.407  1.00  0.00    -0.317 N 
HETATM   31  C3  UNL     1      31.212   7.554 -41.407  1.00  0.00     0.122 A 
HETATM   32  C2  UNL     1      30.930   8.292 -42.534  1.00  0.00     0.022 A 
HETATM   33  C1  UNL     1      29.601   8.851 -42.901  1.00  0.00     0.069 C 
HETATM   34  N6  UNL     1      32.076   8.396 -43.211  1.00  0.00    -0.354 N 
HETATM   35  C25 UNL     1      33.036   7.740 -42.521  1.00  0.00     0.188 A 
ATOM     36  H6  UNL     1      32.205   8.885 -44.096  1.00  0.00     0.166 HD
ENDBRANCH  26  30
BRANCH  28  37
HETATM   37  C23 UNL     1      32.942   6.100 -36.645  1.00  0.00     0.417 C 
HETATM   38  F1  UNL     1      34.030   6.438 -35.893  1.00  0.00    -0.166 F 
HETATM   39  F2  UNL     1      31.986   7.091 -36.600  1.00  0.00    -0.166 F 
HETATM   40  F3  UNL     1      32.313   4.941 -36.206  1.00  0.00    -0.166 F 
ENDBRANCH  28  37
ENDBRANCH   1  24
TORSDOF 6
ENDMDL
MODEL 9
REMARK VINA RESULT: -10.121649141      8.223     13.186
REMARK  6 active torsions:
REMARK  status: ('A' for Active; 'I' for Inactive)
REMARK    1  A    between atoms: N1_4  and  C4_5 
REMARK    2  A    between atoms: C6_7  and  N2_8 
REMARK       I    between atoms: N2_8  and  C7_10 
REMARK    3  A    between atoms: C7_10  and  C8_12 
REMARK    4  A    between atoms: C15_19  and  N3_20 
REMARK    5  A    between atoms: N3_20  and  C16_22 
REMARK    6  A    between atoms: C22_32  and  C23_33 
ROOT
HETATM    1  N2  UNL     1      38.216  -5.706 -38.478  1.00  0.00    -0.323 N 
ATOM      2  H2  UNL     1      37.242  -5.607 -38.761  1.00  0.00     0.169 HD
HETATM    3  C7  UNL     1      39.208  -5.835 -39.444  1.00  0.00     0.256 C 
HETATM    4  O1  UNL     1      40.430  -5.984 -39.095  1.00  0.00    -0.267 OA
ENDROOT
BRANCH   3   5
HETATM    5  C8  UNL     1      38.960  -5.804 -40.872  1.00  0.00     0.032 A 
HETATM    6  C9  UNL     1      39.270  -6.787 -41.769  1.00  0.00     0.017 A 
HETATM    7  C10 UNL     1      39.001  -6.646 -43.141  1.00  0.00     0.009 A 
HETATM    8  C11 UNL     1      38.408  -5.507 -43.658  1.00  0.00    -0.050 A 
HETATM    9  C12 UNL     1      38.097  -4.529 -42.749  1.00  0.00    -0.049 A 
HETATM   10  C20 UNL     1      38.043  -5.036 -45.042  1.00  0.00     0.064 C 
HETATM   11  C13 UNL     1      38.354  -4.651 -41.416  1.00  0.00     0.024 A 
HETATM   12  C14 UNL     1      37.428  -3.420 -43.515  1.00  0.00     0.064 C 
HETATM   13  C15 UNL     1      38.131  -3.505 -44.821  1.00  0.00     0.090 C 
BRANCH  13  14
HETATM   14  N3  UNL     1      37.485  -2.864 -45.909  1.00  0.00    -0.383 N 
ATOM     15  H3  UNL     1      36.611  -3.281 -46.229  1.00  0.00     0.160 HD
BRANCH  14  16
HETATM   16  C16 UNL     1      37.920  -1.710 -46.597  1.00  0.00     0.059 A 
HETATM   17  C17 UNL     1      37.100  -0.653 -46.908  1.00  0.00     0.119 A 
HETATM   18  N4  UNL     1      37.570   0.432 -47.593  1.00  0.00    -0.360 N 
HETATM   19  C18 UNL     1      38.840   0.495 -47.977  1.00  0.00     0.180 A 
ATOM     20  H4  UNL     1      36.938   1.202 -47.813  1.00  0.00     0.166 HD
HETATM   21  N5  UNL     1      39.661  -0.522 -47.687  1.00  0.00    -0.360 N 
HETATM   22  C19 UNL     1      39.223  -1.620 -47.006  1.00  0.00     0.119 A 
ATOM     23  H5  UNL     1      40.636  -0.475 -47.981  1.00  0.00     0.166 HD
ENDBRANCH  14  16
ENDBRANCH  13  14
ENDBRANCH   3   5
BRANCH   1  24
HETATM   24  C6  UNL     1      38.557  -5.713 -37.097  1.00  0.00     0.037 A 
HETATM   25  C5  UNL     1      38.712  -6.904 -36.404  1.00  0.00     0.059 A 
HETATM   26  C4  UNL     1      39.026  -6.953 -35.065  1.00  0.00     0.042 A 
HETATM   27  C24 UNL     1      39.199  -5.751 -34.364  1.00  0.00     0.046 A 
HETATM   28  C22 UNL     1      39.056  -4.575 -35.007  1.00  0.00     0.052 A 
HETATM   29  C21 UNL     1      38.738  -4.569 -36.361  1.00  0.00     0.046 A 
BRANCH  26  30
HETATM   30  N1  UNL     1      39.200  -8.190 -34.364  1.00  0.00    -0.317 N 
HETATM   31  C3  UNL     1      39.660  -9.335 -34.931  1.00  0.00     0.122 A 
HETATM   32  C2  UNL     1      39.691 -10.335 -33.984  1.00  0.00     0.022 A 
HETATM   33  C1  UNL     1      40.134 -11.736 -34.210  1.00  0.00     0.069 C 
HETATM   34  N6  UNL     1      39.251  -9.789 -32.848  1.00  0.00    -0.354 N 
HETATM   35  C25 UNL     1      38.956  -8.491 -33.088  1.00  0.00     0.188 A 
ATOM     36  H6  UNL     1      39.153 -10.268 -31.953  1.00  0.00     0.166 HD
ENDBRANCH  26  30
BRANCH  28  37
HETATM   37  C23 UNL     1      39.243  -3.284 -34.259  1.00  0.00     0.417 C 
HETATM   38  F1  UNL     1      38.386  -3.230 -33.197  1.00  0.00    -0.166 F 
HETATM   39  F2  UNL     1      40.552  -3.205 -33.839  1.00  0.00    -0.166 F 
HETATM   40  F3  UNL     1      39.066  -2.237 -35.157  1.00  0.00    -0.166 F 
ENDBRANCH  28  37
ENDBRANCH   1  24
TORSDOF 6
ENDMDL
MODEL 10
REMARK VINA RESULT: -10.022145142      5.716     12.431
REMARK  6 active torsions:
REMARK  status: ('A' for Active; 'I' for Inactive)
REMARK    1  A    between atoms: N1_4  and  C4_5 
REMARK    2  A    between atoms: C6_7  and  N2_8 
REMARK       I    between atoms: N2_8  and  C7_10 
REMARK    3  A    between atoms: C7_10  and  C8_12 
REMARK    4  A    between atoms: C15_19  and  N3_20 
REMARK    5  A    between atoms: N3_20  and  C16_22 
REMARK    6  A    between atoms: C22_32  and  C23_33 
ROOT
HETATM    1  N2  UNL     1      37.707  -4.321 -36.469  1.00  0.00    -0.323 N 
ATOM      2  H2  UNL     1      37.281  -3.663 -35.817  1.00  0.00     0.169 HD
HETATM    3  C7  UNL     1      38.372  -3.848 -37.595  1.00  0.00     0.256 C 
HETATM    4  O1  UNL     1      38.888  -4.669 -38.430  1.00  0.00    -0.267 OA
ENDROOT
BRANCH   3   5
HETATM    5  C8  UNL     1      38.542  -2.442 -37.906  1.00  0.00     0.032 A 
HETATM    6  C9  UNL     1      39.606  -1.658 -37.558  1.00  0.00     0.017 A 
HETATM    7  C10 UNL     1      39.661  -0.296 -37.897  1.00  0.00     0.009 A 
HETATM    8  C11 UNL     1      38.645   0.326 -38.601  1.00  0.00    -0.050 A 
HETATM    9  C12 UNL     1      37.585  -0.471 -38.950  1.00  0.00    -0.049 A 
HETATM   10  C20 UNL     1      38.382   1.737 -39.063  1.00  0.00     0.064 C 
HETATM   11  C13 UNL     1      37.517  -1.793 -38.627  1.00  0.00     0.024 A 
HETATM   12  C14 UNL     1      36.636   0.390 -39.739  1.00  0.00     0.064 C 
HETATM   13  C15 UNL     1      36.834   1.712 -39.089  1.00  0.00     0.090 C 
BRANCH  13  14
HETATM   14  N3  UNL     1      36.387   2.834 -39.832  1.00  0.00    -0.383 N 
ATOM     15  H3  UNL     1      36.753   2.928 -40.779  1.00  0.00     0.160 HD
BRANCH  14  16
HETATM   16  C16 UNL     1      35.489   3.836 -39.401  1.00  0.00     0.059 A 
HETATM   17  C17 UNL     1      34.864   3.825 -38.178  1.00  0.00     0.119 A 
HETATM   18  N4  UNL     1      33.988   4.811 -37.820  1.00  0.00    -0.360 N 
HETATM   19  C18 UNL     1      33.718   5.812 -38.649  1.00  0.00     0.180 A 
ATOM     20  H4  UNL     1      33.537   4.777 -36.906  1.00  0.00     0.166 HD
HETATM   21  N5  UNL     1      34.312   5.847 -39.848  1.00  0.00    -0.360 N 
HETATM   22  C19 UNL     1      35.189   4.878 -40.236  1.00  0.00     0.119 A 
ATOM     23  H5  UNL     1      34.105   6.616 -40.485  1.00  0.00     0.166 HD
ENDBRANCH  14  16
ENDBRANCH  13  14
ENDBRANCH   3   5
BRANCH   1  24
HETATM   24  C6  UNL     1      37.619  -5.720 -36.226  1.00  0.00     0.037 A 
HETATM   25  C5  UNL     1      36.590  -6.477 -36.766  1.00  0.00     0.059 A 
HETATM   26  C4  UNL     1      36.461  -7.829 -36.542  1.00  0.00     0.042 A 
HETATM   27  C24 UNL     1      37.407  -8.476 -35.733  1.00  0.00     0.046 A 
HETATM   28  C22 UNL     1      38.420  -7.770 -35.192  1.00  0.00     0.052 A 
HETATM   29  C21 UNL     1      38.514  -6.405 -35.443  1.00  0.00     0.046 A 
BRANCH  26  30
HETATM   30  N1  UNL     1      35.404  -8.603 -37.119  1.00  0.00    -0.317 N 
HETATM   31  C3  UNL     1      35.008  -8.516 -38.416  1.00  0.00     0.122 A 
HETATM   32  C2  UNL     1      33.962  -9.383 -38.635  1.00  0.00     0.022 A 
HETATM   33  C1  UNL     1      33.250  -9.583 -39.925  1.00  0.00     0.069 C 
HETATM   34  N6  UNL     1      33.731  -9.993 -37.470  1.00  0.00    -0.354 N 
HETATM   35  C25 UNL     1      34.608  -9.514 -36.559  1.00  0.00     0.188 A 
ATOM     36  H6  UNL     1      33.015 -10.699 -37.297  1.00  0.00     0.166 HD
ENDBRANCH  26  30
BRANCH  28  37
HETATM   37  C23 UNL     1      39.437  -8.461 -34.326  1.00  0.00     0.417 C 
HETATM   38  F1  UNL     1      39.087  -8.346 -33.011  1.00  0.00    -0.166 F 
HETATM   39  F2  UNL     1      39.507  -9.784 -34.702  1.00  0.00    -0.166 F 
HETATM   40  F3  UNL     1      40.684  -7.916 -34.609  1.00  0.00    -0.166 F 
ENDBRANCH  28  37
ENDBRANCH   1  24
TORSDOF 6
ENDMDL
MODEL 11
REMARK VINA RESULT: -9.763959240      6.311      7.702
REMARK  6 active torsions:
REMARK  status: ('A' for Active; 'I' for Inactive)
REMARK    1  A    between atoms: N1_4  and  C4_5 
REMARK    2  A    between atoms: C6_7  and  N2_8 
REMARK       I    between atoms: N2_8  and  C7_10 
REMARK    3  A    between atoms: C7_10  and  C8_12 
REMARK    4  A    between atoms: C15_19  and  N3_20 
REMARK    5  A    between atoms: N3_20  and  C16_22 
REMARK    6  A    between atoms: C22_32  and  C23_33 
ROOT
HETATM    1  N2  UNL     1      34.508   5.724 -43.855  1.00  0.00    -0.323 N 
ATOM      2  H2  UNL     1      35.367   6.208 -44.115  1.00  0.00     0.169 HD
HETATM    3  C7  UNL     1      34.211   4.488 -44.418  1.00  0.00     0.256 C 
HETATM    4  O1  UNL     1      33.123   3.888 -44.115  1.00  0.00    -0.267 OA
ENDROOT
BRANCH   3   5
HETATM    5  C8  UNL     1      35.074   3.793 -45.354  1.00  0.00     0.032 A 
HETATM    6  C9  UNL     1      35.832   4.366 -46.335  1.00  0.00     0.017 A 
HETATM    7  C10 UNL     1      36.622   3.594 -47.203  1.00  0.00     0.009 A 
HETATM    8  C11 UNL     1      36.678   2.214 -47.111  1.00  0.00    -0.050 A 
HETATM    9  C12 UNL     1      35.918   1.650 -46.119  1.00  0.00    -0.049 A 
HETATM   10  C20 UNL     1      37.364   1.125 -47.895  1.00  0.00     0.064 C 
HETATM   11  C13 UNL     1      35.145   2.386 -45.272  1.00  0.00     0.024 A 
HETATM   12  C14 UNL     1      36.165   0.166 -46.173  1.00  0.00     0.064 C 
HETATM   13  C15 UNL     1      36.378  -0.040 -47.629  1.00  0.00     0.090 C 
BRANCH  13  14
HETATM   14  N3  UNL     1      37.019  -1.252 -47.990  1.00  0.00    -0.383 N 
ATOM     15  H3  UNL     1      36.601  -1.777 -48.757  1.00  0.00     0.160 HD
BRANCH  14  16
HETATM   16  C16 UNL     1      38.175  -1.811 -47.400  1.00  0.00     0.059 A 
HETATM   17  C17 UNL     1      39.453  -1.396 -47.684  1.00  0.00     0.119 A 
HETATM   18  N4  UNL     1      40.538  -1.985 -47.100  1.00  0.00    -0.360 N 
HETATM   19  C18 UNL     1      40.384  -2.982 -46.234  1.00  0.00     0.180 A 
ATOM     20  H4  UNL     1      41.476  -1.658 -47.330  1.00  0.00     0.166 HD
HETATM   21  N5  UNL     1      39.149  -3.407 -45.940  1.00  0.00    -0.360 N 
HETATM   22  C19 UNL     1      38.047  -2.841 -46.508  1.00  0.00     0.119 A 
ATOM     23  H5  UNL     1      39.031  -4.172 -45.276  1.00  0.00     0.166 HD
ENDBRANCH  14  16
ENDBRANCH  13  14
ENDBRANCH   3   5
BRANCH   1  24
HETATM   24  C6  UNL     1      33.616   6.316 -42.918  1.00  0.00     0.037 A 
HETATM   25  C5  UNL     1      33.698   6.018 -41.566  1.00  0.00     0.059 A 
HETATM   26  C4  UNL     1      32.845   6.558 -40.630  1.00  0.00     0.042 A 
HETATM   27  C24 UNL     1      31.848   7.448 -41.054  1.00  0.00     0.046 A 
HETATM   28  C22 UNL     1      31.740   7.759 -42.361  1.00  0.00     0.052 A 
HETATM   29  C21 UNL     1      32.622   7.192 -43.275  1.00  0.00     0.046 A 
BRANCH  26  30
HETATM   30  N1  UNL     1      32.950   6.255 -39.235  1.00  0.00    -0.317 N 
HETATM   31  C3  UNL     1      31.897   6.209 -38.378  1.00  0.00     0.122 A 
HETATM   32  C2  UNL     1      32.349   5.905 -37.113  1.00  0.00     0.022 A 
HETATM   33  C1  UNL     1      31.506   5.764 -35.896  1.00  0.00     0.069 C 
HETATM   34  N6  UNL     1      33.673   5.768 -37.211  1.00  0.00    -0.354 N 
HETATM   35  C25 UNL     1      34.028   5.982 -38.498  1.00  0.00     0.188 A 
ATOM     36  H6  UNL     1      34.308   5.541 -36.446  1.00  0.00     0.166 HD
ENDBRANCH  26  30
BRANCH  28  37
HETATM   37  C23 UNL     1      30.673   8.715 -42.819  1.00  0.00     0.417 C 
HETATM   38  F1  UNL     1      29.518   8.495 -42.125  1.00  0.00    -0.166 F 
HETATM   39  F2  UNL     1      31.125  10.002 -42.627  1.00  0.00    -0.166 F 
HETATM   40  F3  UNL     1      30.521   8.564 -44.193  1.00  0.00    -0.166 F 
ENDBRANCH  28  37
ENDBRANCH   1  24
TORSDOF 6
ENDMDL
MODEL 12
REMARK VINA RESULT: -9.719359091      6.151     11.863
REMARK  6 active torsions:
REMARK  status: ('A' for Active; 'I' for Inactive)
REMARK    1  A    between atoms: N1_4  and  C4_5 
REMARK    2  A    between atoms: C6_7  and  N2_8 
REMARK       I    between atoms: N2_8  and  C7_10 
REMARK    3  A    between atoms: C7_10  and  C8_12 
REMARK    4  A    between atoms: C15_19  and  N3_20 
REMARK    5  A    between atoms: N3_20  and  C16_22 
REMARK    6  A    between atoms: C22_32  and  C23_33 
ROOT
HETATM    1  N2  UNL     1      37.459  -1.790 -42.256  1.00  0.00    -0.323 N 
ATOM      2  H2  UNL     1      36.654  -1.286 -42.625  1.00  0.00     0.169 HD
HETATM    3  C7  UNL     1      37.905  -1.534 -40.964  1.00  0.00     0.256 C 
HETATM    4  O1  UNL     1      38.930  -2.146 -40.504  1.00  0.00    -0.267 OA
ENDROOT
BRANCH   3   5
HETATM    5  C8  UNL     1      37.272  -0.596 -40.058  1.00  0.00     0.032 A 
HETATM    6  C9  UNL     1      36.652  -0.901 -38.879  1.00  0.00     0.017 A 
HETATM    7  C10 UNL     1      36.052   0.088 -38.083  1.00  0.00     0.009 A 
HETATM    8  C11 UNL     1      36.056   1.424 -38.446  1.00  0.00    -0.050 A 
HETATM    9  C12 UNL     1      36.685   1.720 -39.628  1.00  0.00    -0.049 A 
HETATM   10  C20 UNL     1      35.476   2.685 -37.859  1.00  0.00     0.064 C 
HETATM   11  C13 UNL     1      37.270   0.771 -40.411  1.00  0.00     0.024 A 
HETATM   12  C14 UNL     1      36.610   3.214 -39.797  1.00  0.00     0.064 C 
HETATM   13  C15 UNL     1      35.303   3.513 -39.157  1.00  0.00     0.090 C 
BRANCH  13  14
HETATM   14  N3  UNL     1      35.095   4.867 -38.792  1.00  0.00    -0.383 N 
ATOM     15  H3  UNL     1      35.929   5.445 -38.691  1.00  0.00     0.160 HD
BRANCH  14  16
HETATM   16  C16 UNL     1      33.856   5.503 -38.554  1.00  0.00     0.059 A 
HETATM   17  C17 UNL     1      33.135   5.360 -37.394  1.00  0.00     0.119 A 
HETATM   18  N4  UNL     1      31.931   5.982 -37.223  1.00  0.00    -0.360 N 
HETATM   19  C18 UNL     1      31.424   6.750 -38.181  1.00  0.00     0.180 A 
ATOM     20  H4  UNL     1      31.416   5.857 -36.352  1.00  0.00     0.166 HD
HETATM   21  N5  UNL     1      32.105   6.907 -39.323  1.00  0.00    -0.360 N 
HETATM   22  C19 UNL     1      33.307   6.298 -39.524  1.00  0.00     0.119 A 
ATOM     23  H5  UNL     1      31.715   7.496 -40.059  1.00  0.00     0.166 HD
ENDBRANCH  14  16
ENDBRANCH  13  14
ENDBRANCH   3   5
BRANCH   1  24
HETATM   24  C6  UNL     1      38.124  -2.755 -43.064  1.00  0.00     0.037 A 
HETATM   25  C5  UNL     1      37.808  -4.103 -42.974  1.00  0.00     0.059 A 
HETATM   26  C4  UNL     1      38.438  -5.068 -43.727  1.00  0.00     0.042 A 
HETATM   27  C24 UNL     1      39.443  -4.680 -44.625  1.00  0.00     0.046 A 
HETATM   28  C22 UNL     1      39.774  -3.378 -44.737  1.00  0.00     0.052 A 
HETATM   29  C21 UNL     1      39.114  -2.434 -43.958  1.00  0.00     0.046 A 
BRANCH  26  30
HETATM   30  N1  UNL     1      38.091  -6.454 -43.638  1.00  0.00    -0.317 N 
HETATM   31  C3  UNL     1      37.011  -6.934 -42.969  1.00  0.00     0.122 A 
HETATM   32  C2  UNL     1      36.981  -8.307 -43.071  1.00  0.00     0.022 A 
HETATM   33  C1  UNL     1      35.956  -9.204 -42.475  1.00  0.00     0.069 C 
HETATM   34  N6  UNL     1      38.044  -8.651 -43.803  1.00  0.00    -0.354 N 
HETATM   35  C25 UNL     1      38.709  -7.524 -44.141  1.00  0.00     0.188 A 
ATOM     36  H6  UNL     1      38.308  -9.601 -44.063  1.00  0.00     0.166 HD
ENDBRANCH  26  30
BRANCH  28  37
HETATM   37  C23 UNL     1      40.850  -2.958 -45.700  1.00  0.00     0.417 C 
HETATM   38  F1  UNL     1      40.999  -3.903 -46.675  1.00  0.00    -0.166 F 
HETATM   39  F2  UNL     1      40.503  -1.741 -46.243  1.00  0.00    -0.166 F 
HETATM   40  F3  UNL     1      42.015  -2.735 -44.974  1.00  0.00    -0.166 F 
ENDBRANCH  28  37
ENDBRANCH   1  24
TORSDOF 6
ENDMDL
MODEL 13
REMARK VINA RESULT: -9.558000165      7.181      8.517
REMARK  6 active torsions:
REMARK  status: ('A' for Active; 'I' for Inactive)
REMARK    1  A    between atoms: N1_4  and  C4_5 
REMARK    2  A    between atoms: C6_7  and  N2_8 
REMARK       I    between atoms: N2_8  and  C7_10 
REMARK    3  A    between atoms: C7_10  and  C8_12 
REMARK    4  A    between atoms: C15_19  and  N3_20 
REMARK    5  A    between atoms: N3_20  and  C16_22 
REMARK    6  A    between atoms: C22_32  and  C23_33 
ROOT
HETATM    1  N2  UNL     1      38.074  -2.410 -42.869  1.00  0.00    -0.323 N 
ATOM      2  H2  UNL     1      38.139  -3.390 -42.598  1.00  0.00     0.169 HD
HETATM    3  C7  UNL     1      37.969  -1.426 -41.892  1.00  0.00     0.256 C 
HETATM    4  O1  UNL     1      37.863  -0.196 -42.227  1.00  0.00    -0.267 OA
ENDROOT
BRANCH   3   5
HETATM    5  C8  UNL     1      37.979  -1.693 -40.467  1.00  0.00     0.032 A 
HETATM    6  C9  UNL     1      37.303  -0.993 -39.508  1.00  0.00     0.017 A 
HETATM    7  C10 UNL     1      37.398  -1.326 -38.147  1.00  0.00     0.009 A 
HETATM    8  C11 UNL     1      38.178  -2.380 -37.703  1.00  0.00    -0.050 A 
HETATM    9  C12 UNL     1      38.848  -3.079 -38.674  1.00  0.00    -0.049 A 
HETATM   10  C20 UNL     1      38.524  -2.949 -36.351  1.00  0.00     0.064 C 
HETATM   11  C13 UNL     1      38.767  -2.765 -39.998  1.00  0.00     0.024 A 
HETATM   12  C14 UNL     1      39.584  -4.192 -37.979  1.00  0.00     0.064 C 
HETATM   13  C15 UNL     1      39.911  -3.555 -36.677  1.00  0.00     0.090 C 
BRANCH  13  14
HETATM   14  N3  UNL     1      40.262  -4.445 -35.630  1.00  0.00    -0.383 N 
ATOM     15  H3  UNL     1      41.058  -4.177 -35.053  1.00  0.00     0.160 HD
BRANCH  14  16
HETATM   16  C16 UNL     1      39.627  -5.662 -35.300  1.00  0.00     0.059 A 
HETATM   17  C17 UNL     1      39.707  -6.798 -36.069  1.00  0.00     0.119 A 
HETATM   18  N4  UNL     1      39.055  -7.945 -35.713  1.00  0.00    -0.360 N 
HETATM   19  C18 UNL     1      38.324  -7.993 -34.604  1.00  0.00     0.180 A 
ATOM     20  H4  UNL     1      39.130  -8.773 -36.303  1.00  0.00     0.166 HD
HETATM   21  N5  UNL     1      38.228  -6.900 -33.837  1.00  0.00    -0.360 N 
HETATM   22  C19 UNL     1      38.864  -5.740 -34.166  1.00  0.00     0.119 A 
ATOM     23  H5  UNL     1      37.667  -6.937 -32.986  1.00  0.00     0.166 HD
ENDBRANCH  14  16
ENDBRANCH  13  14
ENDBRANCH   3   5
BRANCH   1  24
HETATM   24  C6  UNL     1      38.091  -2.052 -44.247  1.00  0.00     0.037 A 
HETATM   25  C5  UNL     1      37.052  -1.325 -44.810  1.00  0.00     0.059 A 
HETATM   26  C4  UNL     1      37.024  -0.972 -46.140  1.00  0.00     0.042 A 
HETATM   27  C24 UNL     1      38.087  -1.361 -46.968  1.00  0.00     0.046 A 
HETATM   28  C22 UNL     1      39.113  -2.068 -46.453  1.00  0.00     0.052 A 
HETATM   29  C21 UNL     1      39.103  -2.404 -45.103  1.00  0.00     0.046 A 
BRANCH  26  30
HETATM   30  N1  UNL     1      35.954  -0.207 -46.706  1.00  0.00    -0.317 N 
HETATM   31  C3  UNL     1      35.441  -0.406 -47.947  1.00  0.00     0.122 A 
HETATM   32  C2  UNL     1      34.438   0.507 -48.181  1.00  0.00     0.022 A 
HETATM   33  C1  UNL     1      33.631   0.617 -49.425  1.00  0.00     0.069 C 
HETATM   34  N6  UNL     1      34.348   1.254 -47.078  1.00  0.00    -0.354 N 
HETATM   35  C25 UNL     1      35.269   0.815 -46.191  1.00  0.00     0.188 A 
ATOM     36  H6  UNL     1      33.696   2.025 -46.930  1.00  0.00     0.166 HD
ENDBRANCH  26  30
BRANCH  28  37
HETATM   37  C23 UNL     1      40.255  -2.485 -47.337  1.00  0.00     0.417 C 
HETATM   38  F1  UNL     1      41.120  -1.441 -47.507  1.00  0.00    -0.166 F 
HETATM   39  F2  UNL     1      40.890  -3.560 -46.757  1.00  0.00    -0.166 F 
HETATM   40  F3  UNL     1      39.724  -2.954 -48.534  1.00  0.00    -0.166 F 
ENDBRANCH  28  37
ENDBRANCH   1  24
TORSDOF 6
ENDMDL
MODEL 14
REMARK VINA RESULT: -9.553526488      7.670      9.075
REMARK  6 active torsions:
REMARK  status: ('A' for Active; 'I' for Inactive)
REMARK    1  A    between atoms: N1_4  and  C4_5 
REMARK    2  A    between atoms: C6_7  and  N2_8 
REMARK       I    between atoms: N2_8  and  C7_10 
REMARK    3  A    between atoms: C7_10  and  C8_12 
REMARK    4  A    between atoms: C15_19  and  N3_20 
REMARK    5  A    between atoms: N3_20  and  C16_22 
REMARK    6  A    between atoms: C22_32  and  C23_33 
ROOT
HETATM    1  N2  UNL     1      38.401  -3.150 -41.553  1.00  0.00    -0.323 N 
ATOM      2  H2  UNL     1      37.742  -3.888 -41.311  1.00  0.00     0.169 HD
HETATM    3  C7  UNL     1      39.078  -2.467 -40.548  1.00  0.00     0.256 C 
HETATM    4  O1  UNL     1      39.889  -1.523 -40.845  1.00  0.00    -0.267 OA
ENDROOT
BRANCH   3   5
HETATM    5  C8  UNL     1      38.938  -2.757 -39.134  1.00  0.00     0.032 A 
HETATM    6  C9  UNL     1      39.064  -1.863 -38.109  1.00  0.00     0.017 A 
HETATM    7  C10 UNL     1      38.926  -2.255 -36.767  1.00  0.00     0.009 A 
HETATM    8  C11 UNL     1      38.655  -3.565 -36.410  1.00  0.00    -0.050 A 
HETATM    9  C12 UNL     1      38.526  -4.452 -37.447  1.00  0.00    -0.049 A 
HETATM   10  C20 UNL     1      38.503  -4.299 -35.103  1.00  0.00     0.064 C 
HETATM   11  C13 UNL     1      38.658  -4.086 -38.753  1.00  0.00     0.024 A 
HETATM   12  C14 UNL     1      38.190  -5.787 -36.837  1.00  0.00     0.064 C 
HETATM   13  C15 UNL     1      38.937  -5.716 -35.555  1.00  0.00     0.090 C 
BRANCH  13  14
HETATM   14  N3  UNL     1      38.533  -6.640 -34.558  1.00  0.00    -0.383 N 
ATOM     15  H3  UNL     1      37.854  -6.305 -33.875  1.00  0.00     0.160 HD
BRANCH  14  16
HETATM   16  C16 UNL     1      38.970  -7.975 -34.409  1.00  0.00     0.059 A 
HETATM   17  C17 UNL     1      39.389  -8.762 -35.455  1.00  0.00     0.119 A 
HETATM   18  N4  UNL     1      39.782 -10.055 -35.258  1.00  0.00    -0.360 N 
HETATM   19  C18 UNL     1      39.772 -10.589 -34.041  1.00  0.00     0.180 A 
ATOM     20  H4  UNL     1      40.087 -10.617 -36.052  1.00  0.00     0.166 HD
HETATM   21  N5  UNL     1      39.368  -9.845 -33.004  1.00  0.00    -0.360 N 
HETATM   22  C19 UNL     1      38.967  -8.552 -33.168  1.00  0.00     0.119 A 
ATOM     23  H5  UNL     1      39.360 -10.254 -32.070  1.00  0.00     0.166 HD
ENDBRANCH  14  16
ENDBRANCH  13  14
ENDBRANCH   3   5
BRANCH   1  24
HETATM   24  C6  UNL     1      38.628  -2.820 -42.919  1.00  0.00     0.037 A 
HETATM   25  C5  UNL     1      37.695  -2.094 -43.644  1.00  0.00     0.059 A 
HETATM   26  C4  UNL     1      37.869  -1.768 -44.969  1.00  0.00     0.042 A 
HETATM   27  C24 UNL     1      39.038  -2.186 -45.623  1.00  0.00     0.046 A 
HETATM   28  C22 UNL     1      39.966  -2.894 -44.948  1.00  0.00     0.052 A 
HETATM   29  C21 UNL     1      39.751  -3.202 -43.609  1.00  0.00     0.046 A 
BRANCH  26  30
HETATM   30  N1  UNL     1      36.907  -1.003 -45.703  1.00  0.00    -0.317 N 
HETATM   31  C3  UNL     1      36.848  -0.939 -47.058  1.00  0.00     0.122 A 
HETATM   32  C2  UNL     1      35.817  -0.107 -47.433  1.00  0.00     0.022 A 
HETATM   33  C1  UNL     1      35.428   0.224 -48.830  1.00  0.00     0.069 C 
HETATM   34  N6  UNL     1      35.256   0.328 -46.303  1.00  0.00    -0.354 N 
HETATM   35  C25 UNL     1      35.922  -0.219 -45.261  1.00  0.00     0.188 A 
ATOM     36  H6  UNL     1      34.462   0.964 -46.236  1.00  0.00     0.166 HD
ENDBRANCH  26  30
BRANCH  28  37
HETATM   37  C23 UNL     1      41.221  -3.341 -45.645  1.00  0.00     0.417 C 
HETATM   38  F1  UNL     1      42.226  -2.445 -45.419  1.00  0.00    -0.166 F 
HETATM   39  F2  UNL     1      41.562  -4.591 -45.176  1.00  0.00    -0.166 F 
HETATM   40  F3  UNL     1      40.928  -3.505 -46.994  1.00  0.00    -0.166 F 
ENDBRANCH  28  37
ENDBRANCH   1  24
TORSDOF 6
ENDMDL
MODEL 15
REMARK VINA RESULT: -9.551849069      6.718     11.794
REMARK  6 active torsions:
REMARK  status: ('A' for Active; 'I' for Inactive)
REMARK    1  A    between atoms: N1_4  and  C4_5 
REMARK    2  A    between atoms: C6_7  and  N2_8 
REMARK       I    between atoms: N2_8  and  C7_10 
REMARK    3  A    between atoms: C7_10  and  C8_12 
REMARK    4  A    between atoms: C15_19  and  N3_20 
REMARK    5  A    between atoms: N3_20  and  C16_22 
REMARK    6  A    between atoms: C22_32  and  C23_33 
ROOT
HETATM    1  N2  UNL     1      38.828  -1.789 -41.890  1.00  0.00    -0.323 N 
ATOM      2  H2  UNL     1      39.512  -1.104 -42.209  1.00  0.00     0.169 HD
HETATM    3  C7  UNL     1      38.299  -2.710 -42.788  1.00  0.00     0.256 C 
HETATM    4  O1  UNL     1      37.423  -3.557 -42.398  1.00  0.00    -0.267 OA
ENDROOT
BRANCH   3   5
HETATM    5  C8  UNL     1      38.682  -2.796 -44.184  1.00  0.00     0.032 A 
HETATM    6  C9  UNL     1      39.790  -3.420 -44.682  1.00  0.00     0.017 A 
HETATM    7  C10 UNL     1      40.077  -3.427 -46.058  1.00  0.00     0.009 A 
HETATM    8  C11 UNL     1      39.254  -2.805 -46.981  1.00  0.00    -0.050 A 
HETATM    9  C12 UNL     1      38.142  -2.187 -46.470  1.00  0.00    -0.049 A 
HETATM   10  C20 UNL     1      39.303  -2.593 -48.472  1.00  0.00     0.064 C 
HETATM   11  C13 UNL     1      37.852  -2.170 -45.139  1.00  0.00     0.024 A 
HETATM   12  C14 UNL     1      37.380  -1.628 -47.641  1.00  0.00     0.064 C 
HETATM   13  C15 UNL     1      38.487  -1.280 -48.569  1.00  0.00     0.090 C 
BRANCH  13  14
HETATM   14  N3  UNL     1      38.115  -1.090 -49.924  1.00  0.00    -0.383 N 
ATOM     15  H3  UNL     1      38.398  -1.818 -50.580  1.00  0.00     0.160 HD
BRANCH  14  16
HETATM   16  C16 UNL     1      37.396  -0.001 -50.464  1.00  0.00     0.059 A 
HETATM   17  C17 UNL     1      36.144  -0.113 -51.018  1.00  0.00     0.119 A 
HETATM   18  N4  UNL     1      35.501   0.972 -51.544  1.00  0.00    -0.360 N 
HETATM   19  C18 UNL     1      36.072   2.171 -51.532  1.00  0.00     0.180 A 
ATOM     20  H4  UNL     1      34.572   0.859 -51.951  1.00  0.00     0.166 HD
HETATM   21  N5  UNL     1      37.292   2.308 -50.999  1.00  0.00    -0.360 N 
HETATM   22  C19 UNL     1      37.961   1.246 -50.468  1.00  0.00     0.119 A 
ATOM     23  H5  UNL     1      37.731   3.229 -50.991  1.00  0.00     0.166 HD
ENDBRANCH  14  16
ENDBRANCH  13  14
ENDBRANCH   3   5
BRANCH   1  24
HETATM   24  C6  UNL     1      38.418  -1.801 -40.527  1.00  0.00     0.037 A 
HETATM   25  C5  UNL     1      38.944  -2.718 -39.630  1.00  0.00     0.059 A 
HETATM   26  C4  UNL     1      38.562  -2.772 -38.309  1.00  0.00     0.042 A 
HETATM   27  C24 UNL     1      37.601  -1.864 -37.843  1.00  0.00     0.046 A 
HETATM   28  C22 UNL     1      37.069  -0.959 -38.689  1.00  0.00     0.052 A 
HETATM   29  C21 UNL     1      37.482  -0.938 -40.016  1.00  0.00     0.046 A 
BRANCH  26  30
HETATM   30  N1  UNL     1      39.125  -3.713 -37.388  1.00  0.00    -0.317 N 
HETATM   31  C3  UNL     1      38.807  -5.032 -37.347  1.00  0.00     0.122 A 
HETATM   32  C2  UNL     1      39.515  -5.644 -36.338  1.00  0.00     0.022 A 
HETATM   33  C1  UNL     1      39.445  -7.084 -35.972  1.00  0.00     0.069 C 
HETATM   34  N6  UNL     1      40.261  -4.692 -35.773  1.00  0.00    -0.354 N 
HETATM   35  C25 UNL     1      40.018  -3.526 -36.415  1.00  0.00     0.188 A 
ATOM     36  H6  UNL     1      40.904  -4.821 -34.992  1.00  0.00     0.166 HD
ENDBRANCH  26  30
BRANCH  28  37
HETATM   37  C23 UNL     1      36.039   0.018 -38.191  1.00  0.00     0.417 C 
HETATM   38  F1  UNL     1      34.848  -0.196 -38.823  1.00  0.00    -0.166 F 
HETATM   39  F2  UNL     1      35.909  -0.138 -36.829  1.00  0.00    -0.166 F 
HETATM   40  F3  UNL     1      36.537   1.302 -38.383  1.00  0.00    -0.166 F 
ENDBRANCH  28  37
ENDBRANCH   1  24
TORSDOF 6
ENDMDL
MODEL 16
REMARK VINA RESULT: -9.548299427      1.600      1.906
REMARK  6 active torsions:
REMARK  status: ('A' for Active; 'I' for Inactive)
REMARK    1  A    between atoms: N1_4  and  C4_5 
REMARK    2  A    between atoms: C6_7  and  N2_8 
REMARK       I    between atoms: N2_8  and  C7_10 
REMARK    3  A    between atoms: C7_10  and  C8_12 
REMARK    4  A    between atoms: C15_19  and  N3_20 
REMARK    5  A    between atoms: N3_20  and  C16_22 
REMARK    6  A    between atoms: C22_32  and  C23_33 
ROOT
HETATM    1  N2  UNL     1      36.503   3.029 -38.414  1.00  0.00    -0.323 N 
ATOM      2  H2  UNL     1      36.992   3.174 -37.531  1.00  0.00     0.169 HD
HETATM    3  C7  UNL     1      36.848   1.958 -39.230  1.00  0.00     0.256 C 
HETATM    4  O1  UNL     1      36.253   1.785 -40.350  1.00  0.00    -0.267 OA
ENDROOT
BRANCH   3   5
HETATM    5  C8  UNL     1      37.863   0.977 -38.897  1.00  0.00     0.032 A 
HETATM    6  C9  UNL     1      39.214   1.140 -39.010  1.00  0.00     0.017 A 
HETATM    7  C10 UNL     1      40.112   0.112 -38.675  1.00  0.00     0.009 A 
HETATM    8  C11 UNL     1      39.678  -1.119 -38.213  1.00  0.00    -0.050 A 
HETATM    9  C12 UNL     1      38.320  -1.269 -38.099  1.00  0.00    -0.049 A 
HETATM   10  C20 UNL     1      40.358  -2.408 -37.829  1.00  0.00     0.064 C 
HETATM   11  C13 UNL     1      37.437  -0.282 -38.422  1.00  0.00     0.024 A 
HETATM   12  C14 UNL     1      38.082  -2.647 -37.542  1.00  0.00     0.064 C 
HETATM   13  C15 UNL     1      39.212  -3.402 -38.141  1.00  0.00     0.090 C 
BRANCH  13  14
HETATM   14  N3  UNL     1      39.521  -4.640 -37.521  1.00  0.00    -0.383 N 
ATOM     15  H3  UNL     1      40.248  -5.201 -37.963  1.00  0.00     0.160 HD
BRANCH  14  16
HETATM   16  C16 UNL     1      38.929  -5.178 -36.357  1.00  0.00     0.059 A 
HETATM   17  C17 UNL     1      39.348  -4.885 -35.082  1.00  0.00     0.119 A 
HETATM   18  N4  UNL     1      38.752  -5.450 -33.990  1.00  0.00    -0.360 N 
HETATM   19  C18 UNL     1      37.743  -6.303 -34.134  1.00  0.00     0.180 A 
ATOM     20  H4  UNL     1      39.085  -5.216 -33.055  1.00  0.00     0.166 HD
HETATM   21  N5  UNL     1      37.315  -6.607 -35.365  1.00  0.00    -0.360 N 
HETATM   22  C19 UNL     1      37.890  -6.061 -36.475  1.00  0.00     0.119 A 
ATOM     23  H5  UNL     1      36.540  -7.261 -35.476  1.00  0.00     0.166 HD
ENDBRANCH  14  16
ENDBRANCH  13  14
ENDBRANCH   3   5
BRANCH   1  24
HETATM   24  C6  UNL     1      35.468   3.924 -38.806  1.00  0.00     0.037 A 
HETATM   25  C5  UNL     1      35.329   4.320 -40.128  1.00  0.00     0.059 A 
HETATM   26  C4  UNL     1      34.352   5.195 -40.545  1.00  0.00     0.042 A 
HETATM   27  C24 UNL     1      33.455   5.713 -39.599  1.00  0.00     0.046 A 
HETATM   28  C22 UNL     1      33.563   5.349 -38.305  1.00  0.00     0.052 A 
HETATM   29  C21 UNL     1      34.565   4.462 -37.925  1.00  0.00     0.046 A 
BRANCH  26  30
HETATM   30  N1  UNL     1      34.206   5.583 -41.916  1.00  0.00    -0.317 N 
HETATM   31  C3  UNL     1      34.521   6.811 -42.403  1.00  0.00     0.122 A 
HETATM   32  C2  UNL     1      34.248   6.853 -43.752  1.00  0.00     0.022 A 
HETATM   33  C1  UNL     1      34.455   8.021 -44.648  1.00  0.00     0.069 C 
HETATM   34  N6  UNL     1      33.771   5.649 -44.075  1.00  0.00    -0.354 N 
HETATM   35  C25 UNL     1      33.749   4.887 -42.957  1.00  0.00     0.188 A 
ATOM     36  H6  UNL     1      33.473   5.354 -45.004  1.00  0.00     0.166 HD
ENDBRANCH  26  30
BRANCH  28  37
HETATM   37  C23 UNL     1      32.602   5.900 -37.288  1.00  0.00     0.417 C 
HETATM   38  F1  UNL     1      33.189   5.925 -36.056  1.00  0.00    -0.166 F 
HETATM   39  F2  UNL     1      32.227   7.166 -37.680  1.00  0.00    -0.166 F 
HETATM   40  F3  UNL     1      31.445   5.130 -37.327  1.00  0.00    -0.166 F 
ENDBRANCH  28  37
ENDBRANCH   1  24
TORSDOF 6
ENDMDL
MODEL 17
REMARK VINA RESULT: -9.522994503      5.546     12.477
REMARK  6 active torsions:
REMARK  status: ('A' for Active; 'I' for Inactive)
REMARK    1  A    between atoms: N1_4  and  C4_5 
REMARK    2  A    between atoms: C6_7  and  N2_8 
REMARK       I    between atoms: N2_8  and  C7_10 
REMARK    3  A    between atoms: C7_10  and  C8_12 
REMARK    4  A    between atoms: C15_19  and  N3_20 
REMARK    5  A    between atoms: N3_20  and  C16_22 
REMARK    6  A    between atoms: C22_32  and  C23_33 
ROOT
HETATM    1  N2  UNL     1      38.968  -4.502 -38.283  1.00  0.00    -0.323 N 
ATOM      2  H2  UNL     1      39.506  -4.328 -39.132  1.00  0.00     0.169 HD
HETATM    3  C7  UNL     1      38.439  -3.433 -37.568  1.00  0.00     0.256 C 
HETATM    4  O1  UNL     1      37.784  -3.643 -36.489  1.00  0.00    -0.267 OA
ENDROOT
BRANCH   3   5
HETATM    5  C8  UNL     1      38.567  -2.045 -37.967  1.00  0.00     0.032 A 
HETATM    6  C9  UNL     1      39.668  -1.254 -37.802  1.00  0.00     0.017 A 
HETATM    7  C10 UNL     1      39.679   0.090 -38.210  1.00  0.00     0.009 A 
HETATM    8  C11 UNL     1      38.579   0.685 -38.803  1.00  0.00    -0.050 A 
HETATM    9  C12 UNL     1      37.481  -0.119 -38.969  1.00  0.00    -0.049 A 
HETATM   10  C20 UNL     1      38.258   2.074 -39.293  1.00  0.00     0.064 C 
HETATM   11  C13 UNL     1      37.455  -1.424 -38.575  1.00  0.00     0.024 A 
HETATM   12  C14 UNL     1      36.436   0.710 -39.665  1.00  0.00     0.064 C 
HETATM   13  C15 UNL     1      36.720   2.059 -39.112  1.00  0.00     0.090 C 
BRANCH  13  14
HETATM   14  N3  UNL     1      36.179   3.148 -39.842  1.00  0.00    -0.383 N 
ATOM     15  H3  UNL     1      36.497   3.253 -40.805  1.00  0.00     0.160 HD
BRANCH  14  16
HETATM   16  C16 UNL     1      35.248   4.103 -39.379  1.00  0.00     0.059 A 
HETATM   17  C17 UNL     1      34.722   4.104 -38.110  1.00  0.00     0.119 A 
HETATM   18  N4  UNL     1      33.808   5.041 -37.719  1.00  0.00    -0.360 N 
HETATM   19  C18 UNL     1      33.402   5.984 -38.562  1.00  0.00     0.180 A 
ATOM     20  H4  UNL     1      33.433   5.017 -36.771  1.00  0.00     0.166 HD
HETATM   21  N5  UNL     1      33.897   6.007 -39.806  1.00  0.00    -0.360 N 
HETATM   22  C19 UNL     1      34.809   5.085 -40.226  1.00  0.00     0.119 A 
ATOM     23  H5  UNL     1      33.585   6.730 -40.453  1.00  0.00     0.166 HD
ENDBRANCH  14  16
ENDBRANCH  13  14
ENDBRANCH   3   5
BRANCH   1  24
HETATM   24  C6  UNL     1      38.763  -5.836 -37.833  1.00  0.00     0.037 A 
HETATM   25  C5  UNL     1      38.215  -6.796 -38.670  1.00  0.00     0.059 A 
HETATM   26  C4  UNL     1      37.986  -8.093 -38.268  1.00  0.00     0.042 A 
HETATM   27  C24 UNL     1      38.318  -8.466 -36.958  1.00  0.00     0.046 A 
HETATM   28  C22 UNL     1      38.853  -7.557 -36.118  1.00  0.00     0.052 A 
HETATM   29  C21 UNL     1      39.068  -6.257 -36.563  1.00  0.00     0.046 A 
BRANCH  26  30
HETATM   30  N1  UNL     1      37.435  -9.080 -39.147  1.00  0.00    -0.317 N 
HETATM   31  C3  UNL     1      36.543  -8.815 -40.137  1.00  0.00     0.122 A 
HETATM   32  C2  UNL     1      36.210  -9.987 -40.779  1.00  0.00     0.022 A 
HETATM   33  C1  UNL     1      35.263 -10.118 -41.917  1.00  0.00     0.069 C 
HETATM   34  N6  UNL     1      36.903 -10.955 -40.175  1.00  0.00    -0.354 N 
HETATM   35  C25 UNL     1      37.642 -10.397 -39.189  1.00  0.00     0.188 A 
ATOM     36  H6  UNL     1      36.880 -11.946 -40.416  1.00  0.00     0.166 HD
ENDBRANCH  26  30
BRANCH  28  37
HETATM   37  C23 UNL     1      39.212  -7.955 -34.713  1.00  0.00     0.417 C 
HETATM   38  F1  UNL     1      40.460  -8.508 -34.688  1.00  0.00    -0.166 F 
HETATM   39  F2  UNL     1      39.154  -6.836 -33.912  1.00  0.00    -0.166 F 
HETATM   40  F3  UNL     1      38.224  -8.813 -34.243  1.00  0.00    -0.166 F 
ENDBRANCH  28  37
ENDBRANCH   1  24
TORSDOF 6
ENDMDL
MODEL 18
REMARK VINA RESULT: -9.522705322      6.122      6.995
REMARK  6 active torsions:
REMARK  status: ('A' for Active; 'I' for Inactive)
REMARK    1  A    between atoms: N1_4  and  C4_5 
REMARK    2  A    between atoms: C6_7  and  N2_8 
REMARK       I    between atoms: N2_8  and  C7_10 
REMARK    3  A    between atoms: C7_10  and  C8_12 
REMARK    4  A    between atoms: C15_19  and  N3_20 
REMARK    5  A    between atoms: N3_20  and  C16_22 
REMARK    6  A    between atoms: C22_32  and  C23_33 
ROOT
HETATM    1  N2  UNL     1      34.573   5.396 -43.732  1.00  0.00    -0.323 N 
ATOM      2  H2  UNL     1      35.354   5.929 -44.112  1.00  0.00     0.169 HD
HETATM    3  C7  UNL     1      34.286   4.132 -44.235  1.00  0.00     0.256 C 
HETATM    4  O1  UNL     1      33.292   3.469 -43.778  1.00  0.00    -0.267 OA
ENDROOT
BRANCH   3   5
HETATM    5  C8  UNL     1      35.059   3.475 -45.271  1.00  0.00     0.032 A 
HETATM    6  C9  UNL     1      35.631   4.075 -46.357  1.00  0.00     0.017 A 
HETATM    7  C10 UNL     1      36.347   3.337 -47.315  1.00  0.00     0.009 A 
HETATM    8  C11 UNL     1      36.514   1.967 -47.210  1.00  0.00    -0.050 A 
HETATM    9  C12 UNL     1      35.941   1.377 -46.114  1.00  0.00    -0.049 A 
HETATM   10  C20 UNL     1      37.162   0.908 -48.066  1.00  0.00     0.064 C 
HETATM   11  C13 UNL     1      35.241   2.079 -45.178  1.00  0.00     0.024 A 
HETATM   12  C14 UNL     1      36.284  -0.087 -46.179  1.00  0.00     0.064 C 
HETATM   13  C15 UNL     1      36.308  -0.314 -47.647  1.00  0.00     0.090 C 
BRANCH  13  14
HETATM   14  N3  UNL     1      36.979  -1.488 -48.075  1.00  0.00    -0.383 N 
ATOM     15  H3  UNL     1      36.566  -1.986 -48.863  1.00  0.00     0.160 HD
BRANCH  14  16
HETATM   16  C16 UNL     1      38.157  -2.042 -47.528  1.00  0.00     0.059 A 
HETATM   17  C17 UNL     1      39.415  -1.538 -47.756  1.00  0.00     0.119 A 
HETATM   18  N4  UNL     1      40.524  -2.126 -47.218  1.00  0.00    -0.360 N 
HETATM   19  C18 UNL     1      40.415  -3.206 -46.452  1.00  0.00     0.180 A 
ATOM     20  H4  UNL     1      41.446  -1.731 -47.405  1.00  0.00     0.166 HD
HETATM   21  N5  UNL     1      39.202  -3.718 -46.213  1.00  0.00    -0.360 N 
HETATM   22  C19 UNL     1      38.076  -3.157 -46.738  1.00  0.00     0.119 A 
ATOM     23  H5  UNL     1      39.118  -4.547 -45.625  1.00  0.00     0.166 HD
ENDBRANCH  14  16
ENDBRANCH  13  14
ENDBRANCH   3   5
BRANCH   1  24
HETATM   24  C6  UNL     1      33.778   5.949 -42.689  1.00  0.00     0.037 A 
HETATM   25  C5  UNL     1      32.667   6.728 -42.972  1.00  0.00     0.059 A 
HETATM   26  C4  UNL     1      31.882   7.292 -41.993  1.00  0.00     0.042 A 
HETATM   27  C24 UNL     1      32.214   7.075 -40.648  1.00  0.00     0.046 A 
HETATM   28  C22 UNL     1      33.289   6.323 -40.337  1.00  0.00     0.052 A 
HETATM   29  C21 UNL     1      34.056   5.770 -41.357  1.00  0.00     0.046 A 
BRANCH  26  30
HETATM   30  N1  UNL     1      30.726   8.081 -42.297  1.00  0.00    -0.317 N 
HETATM   31  C3  UNL     1      30.765   9.304 -42.885  1.00  0.00     0.122 A 
HETATM   32  C2  UNL     1      29.483   9.789 -43.020  1.00  0.00     0.022 A 
HETATM   33  C1  UNL     1      29.104  11.097 -43.616  1.00  0.00     0.069 C 
HETATM   34  N6  UNL     1      28.674   8.855 -42.515  1.00  0.00    -0.354 N 
HETATM   35  C25 UNL     1      29.435   7.825 -42.080  1.00  0.00     0.188 A 
ATOM     36  H6  UNL     1      27.657   8.909 -42.465  1.00  0.00     0.166 HD
ENDBRANCH  26  30
BRANCH  28  37
HETATM   37  C23 UNL     1      33.647   6.086 -38.895  1.00  0.00     0.417 C 
HETATM   38  F1  UNL     1      34.650   6.933 -38.518  1.00  0.00    -0.166 F 
HETATM   39  F2  UNL     1      32.522   6.282 -38.126  1.00  0.00    -0.166 F 
HETATM   40  F3  UNL     1      33.981   4.744 -38.750  1.00  0.00    -0.166 F 
ENDBRANCH  28  37
ENDBRANCH   1  24
TORSDOF 6
ENDMDL
MODEL 19
REMARK VINA RESULT: -9.446615104      2.329      3.756
REMARK  6 active torsions:
REMARK  status: ('A' for Active; 'I' for Inactive)
REMARK    1  A    between atoms: N1_4  and  C4_5 
REMARK    2  A    between atoms: C6_7  and  N2_8 
REMARK       I    between atoms: N2_8  and  C7_10 
REMARK    3  A    between atoms: C7_10  and  C8_12 
REMARK    4  A    between atoms: C15_19  and  N3_20 
REMARK    5  A    between atoms: N3_20  and  C16_22 
REMARK    6  A    between atoms: C22_32  and  C23_33 
ROOT
HETATM    1  N2  UNL     1      36.315   3.740 -39.956  1.00  0.00    -0.323 N 
ATOM      2  H2  UNL     1      37.086   3.932 -40.596  1.00  0.00     0.169 HD
HETATM    3  C7  UNL     1      36.329   2.585 -39.181  1.00  0.00     0.256 C 
HETATM    4  O1  UNL     1      35.353   2.328 -38.394  1.00  0.00    -0.267 OA
ENDROOT
BRANCH   3   5
HETATM    5  C8  UNL     1      37.406   1.615 -39.189  1.00  0.00     0.032 A 
HETATM    6  C9  UNL     1      38.670   1.812 -39.668  1.00  0.00     0.017 A 
HETATM    7  C10 UNL     1      39.636   0.792 -39.643  1.00  0.00     0.009 A 
HETATM    8  C11 UNL     1      39.362  -0.465 -39.132  1.00  0.00    -0.050 A 
HETATM    9  C12 UNL     1      38.092  -0.650 -38.649  1.00  0.00    -0.049 A 
HETATM   10  C20 UNL     1      40.136  -1.752 -39.009  1.00  0.00     0.064 C 
HETATM   11  C13 UNL     1      37.144   0.329 -38.669  1.00  0.00     0.024 A 
HETATM   12  C14 UNL     1      38.034  -2.053 -38.107  1.00  0.00     0.064 C 
HETATM   13  C15 UNL     1      38.959  -2.759 -39.031  1.00  0.00     0.090 C 
BRANCH  13  14
HETATM   14  N3  UNL     1      39.442  -4.013 -38.576  1.00  0.00    -0.383 N 
ATOM     15  H3  UNL     1      39.959  -4.574 -39.252  1.00  0.00     0.160 HD
BRANCH  14  16
HETATM   16  C16 UNL     1      39.284  -4.568 -37.287  1.00  0.00     0.059 A 
HETATM   17  C17 UNL     1      40.133  -4.312 -36.237  1.00  0.00     0.119 A 
HETATM   18  N4  UNL     1      39.945  -4.892 -35.015  1.00  0.00    -0.360 N 
HETATM   19  C18 UNL     1      38.929  -5.722 -34.806  1.00  0.00     0.180 A 
ATOM     20  H4  UNL     1      40.592  -4.687 -34.253  1.00  0.00     0.166 HD
HETATM   21  N5  UNL     1      38.086  -5.989 -35.812  1.00  0.00    -0.360 N 
HETATM   22  C19 UNL     1      38.248  -5.428 -37.044  1.00  0.00     0.119 A 
ATOM     23  H5  UNL     1      37.306  -6.626 -35.653  1.00  0.00     0.166 HD
ENDBRANCH  14  16
ENDBRANCH  13  14
ENDBRANCH   3   5
BRANCH   1  24
HETATM   24  C6  UNL     1      35.230   4.655 -39.858  1.00  0.00     0.037 A 
HETATM   25  C5  UNL     1      34.514   4.791 -38.678  1.00  0.00     0.059 A 
HETATM   26  C4  UNL     1      33.449   5.654 -38.548  1.00  0.00     0.042 A 
HETATM   27  C24 UNL     1      33.066   6.431 -39.650  1.00  0.00     0.046 A 
HETATM   28  C22 UNL     1      33.740   6.322 -40.813  1.00  0.00     0.052 A 
HETATM   29  C21 UNL     1      34.810   5.439 -40.903  1.00  0.00     0.046 A 
BRANCH  26  30
HETATM   30  N1  UNL     1      32.728   5.798 -37.319  1.00  0.00    -0.317 N 
HETATM   31  C3  UNL     1      31.495   6.358 -37.214  1.00  0.00     0.122 A 
HETATM   32  C2  UNL     1      31.100   6.353 -35.895  1.00  0.00     0.022 A 
HETATM   33  C1  UNL     1      29.813   6.878 -35.368  1.00  0.00     0.069 C 
HETATM   34  N6  UNL     1      32.096   5.788 -35.208  1.00  0.00    -0.354 N 
HETATM   35  C25 UNL     1      33.076   5.456 -36.078  1.00  0.00     0.188 A 
ATOM     36  H6  UNL     1      32.114   5.634 -34.200  1.00  0.00     0.166 HD
ENDBRANCH  26  30
BRANCH  28  37
HETATM   37  C23 UNL     1      33.333   7.156 -41.996  1.00  0.00     0.417 C 
HETATM   38  F1  UNL     1      32.407   8.085 -41.618  1.00  0.00    -0.166 F 
HETATM   39  F2  UNL     1      34.456   7.762 -42.514  1.00  0.00    -0.166 F 
HETATM   40  F3  UNL     1      32.870   6.297 -42.988  1.00  0.00    -0.166 F 
ENDBRANCH  28  37
ENDBRANCH   1  24
TORSDOF 6
ENDMDL
MODEL 20
REMARK VINA RESULT: -9.425291818      6.931      8.810
REMARK  6 active torsions:
REMARK  status: ('A' for Active; 'I' for Inactive)
REMARK    1  A    between atoms: N1_4  and  C4_5 
REMARK    2  A    between atoms: C6_7  and  N2_8 
REMARK       I    between atoms: N2_8  and  C7_10 
REMARK    3  A    between atoms: C7_10  and  C8_12 
REMARK    4  A    between atoms: C15_19  and  N3_20 
REMARK    5  A    between atoms: N3_20  and  C16_22 
REMARK    6  A    between atoms: C22_32  and  C23_33 
ROOT
HETATM    1  N2  UNL     1      34.617   6.162 -44.070  1.00  0.00    -0.323 N 
ATOM      2  H2  UNL     1      35.451   6.714 -44.268  1.00  0.00     0.169 HD
HETATM    3  C7  UNL     1      34.401   4.966 -44.746  1.00  0.00     0.256 C 
HETATM    4  O1  UNL     1      33.344   4.282 -44.519  1.00  0.00    -0.267 OA
ENDROOT
BRANCH   3   5
HETATM    5  C8  UNL     1      35.318   4.406 -45.720  1.00  0.00     0.032 A 
HETATM    6  C9  UNL     1      36.095   5.108 -46.597  1.00  0.00     0.017 A 
HETATM    7  C10 UNL     1      36.938   4.462 -47.516  1.00  0.00     0.009 A 
HETATM    8  C11 UNL     1      37.029   3.082 -47.583  1.00  0.00    -0.050 A 
HETATM    9  C12 UNL     1      36.249   2.388 -46.694  1.00  0.00    -0.049 A 
HETATM   10  C20 UNL     1      37.775   2.109 -48.459  1.00  0.00     0.064 C 
HETATM   11  C13 UNL     1      35.425   3.001 -45.799  1.00  0.00     0.024 A 
HETATM   12  C14 UNL     1      36.541   0.927 -46.910  1.00  0.00     0.064 C 
HETATM   13  C15 UNL     1      36.814   0.898 -48.370  1.00  0.00     0.090 C 
BRANCH  13  14
HETATM   14  N3  UNL     1      37.502  -0.248 -48.843  1.00  0.00    -0.383 N 
ATOM     15  H3  UNL     1      38.516  -0.244 -48.740  1.00  0.00     0.160 HD
BRANCH  14  16
HETATM   16  C16 UNL     1      36.933  -1.395 -49.441  1.00  0.00     0.059 A 
HETATM   17  C17 UNL     1      35.830  -1.361 -50.259  1.00  0.00     0.119 A 
HETATM   18  N4  UNL     1      35.309  -2.504 -50.796  1.00  0.00    -0.360 N 
HETATM   19  C18 UNL     1      35.861  -3.686 -50.541  1.00  0.00     0.180 A 
ATOM     20  H4  UNL     1      34.488  -2.450 -51.399  1.00  0.00     0.166 HD
HETATM   21  N5  UNL     1      36.936  -3.747 -49.747  1.00  0.00    -0.360 N 
HETATM   22  C19 UNL     1      37.479  -2.626 -49.194  1.00  0.00     0.119 A 
ATOM     23  H5  UNL     1      37.359  -4.654 -49.551  1.00  0.00     0.166 HD
ENDBRANCH  14  16
ENDBRANCH  13  14
ENDBRANCH   3   5
BRANCH   1  24
HETATM   24  C6  UNL     1      33.677   6.618 -43.103  1.00  0.00     0.037 A 
HETATM   25  C5  UNL     1      33.746   6.196 -41.785  1.00  0.00     0.059 A 
HETATM   26  C4  UNL     1      32.848   6.601 -40.824  1.00  0.00     0.042 A 
HETATM   27  C24 UNL     1      31.817   7.479 -41.186  1.00  0.00     0.046 A 
HETATM   28  C22 UNL     1      31.720   7.909 -42.460  1.00  0.00     0.052 A 
HETATM   29  C21 UNL     1      32.648   7.475 -43.401  1.00  0.00     0.046 A 
BRANCH  26  30
HETATM   30  N1  UNL     1      32.940   6.172 -39.461  1.00  0.00    -0.317 N 
HETATM   31  C3  UNL     1      31.954   6.324 -38.540  1.00  0.00     0.122 A 
HETATM   32  C2  UNL     1      32.373   5.817 -37.330  1.00  0.00     0.022 A 
HETATM   33  C1  UNL     1      31.581   5.797 -36.072  1.00  0.00     0.069 C 
HETATM   34  N6  UNL     1      33.611   5.358 -37.526  1.00  0.00    -0.354 N 
HETATM   35  C25 UNL     1      33.946   5.577 -38.818  1.00  0.00     0.188 A 
ATOM     36  H6  UNL     1      34.203   4.918 -36.822  1.00  0.00     0.166 HD
ENDBRANCH  26  30
BRANCH  28  37
HETATM   37  C23 UNL     1      30.616   8.852 -42.852  1.00  0.00     0.417 C 
HETATM   38  F1  UNL     1      31.018  10.144 -42.669  1.00  0.00    -0.166 F 
HETATM   39  F2  UNL     1      30.288   8.621 -44.170  1.00  0.00    -0.166 F 
HETATM   40  F3  UNL     1      29.486   8.521 -42.113  1.00  0.00    -0.166 F 
ENDBRANCH  28  37
ENDBRANCH   1  24
TORSDOF 6
ENDMDL
