MODEL 1
REMARK VINA RESULT: -8.234069932      0.000      0.000
REMARK  10 active torsions:
REMARK  status: ('A' for Active; 'I' for Inactive)
REMARK    1  A    between atoms: O1_2  and  C2_3 
REMARK    2  A    between atoms: C5_6  and  C6_7 
REMARK    3  A    between atoms: C8_14  and  N3_15 
REMARK    4  A    between atoms: N3_15  and  C9_17 
REMARK    5  A    between atoms: C9_17  and  C10_18 
REMARK    6  A    between atoms: C10_18  and  N4_19 
REMARK    7  A    between atoms: N4_19  and  C11_21 
REMARK    8  A    between atoms: C15_31  and  C16_32 
REMARK    9  A    between atoms: C17_35  and  O4_36 
REMARK   10  A    between atoms: C19_38  and  O5_39 
ROOT
HETATM    1  C6  UNL     1      17.667 -15.734  21.604  1.00  0.00     0.164 A 
HETATM    2  N1  UNL     1      16.683 -16.723  21.918  1.00  0.00    -0.330 N 
ATOM      3  H1  UNL     1      16.997 -17.621  22.284  1.00  0.00     0.165 HD
HETATM    4  C7  UNL     1      15.289 -16.510  21.743  1.00  0.00     0.322 A 
HETATM    5  O2  UNL     1      14.487 -17.427  22.038  1.00  0.00    -0.247 OA
HETATM    6  N2  UNL     1      14.861 -15.239  21.230  1.00  0.00    -0.294 N 
ATOM      7  H2  UNL     1      13.868 -15.050  21.092  1.00  0.00     0.172 HD
HETATM    8  C8  UNL     1      15.824 -14.248  20.917  1.00  0.00     0.118 A 
HETATM    9  C15 UNL     1      17.130 -14.461  21.084  1.00  0.00     0.078 A 
ENDROOT
BRANCH   8  10
HETATM   10  N3  UNL     1      15.387 -12.981  20.417  1.00  0.00    -0.374 N 
ATOM     11  H3  UNL     1      15.899 -12.152  20.719  1.00  0.00     0.161 HD
BRANCH  10  12
HETATM   12  C9  UNL     1      14.288 -12.792  19.524  1.00  0.00     0.141 C 
BRANCH  12  13
HETATM   13  C10 UNL     1      13.094 -12.186  20.220  1.00  0.00     0.157 C 
BRANCH  13  14
HETATM   14  N4  UNL     1      13.548 -11.476  21.412  1.00  0.00    -0.224 N 
ATOM     15  H4  UNL     1      14.504 -11.122  21.465  1.00  0.00     0.177 HD
BRANCH  14  16
HETATM   16  C11 UNL     1      12.653 -11.281  22.499  1.00  0.00     0.680 A 
HETATM   17  N5  UNL     1      11.830 -12.268  22.878  1.00  0.00    -0.188 N 
HETATM   18  C12 UNL     1      10.951 -12.145  23.908  1.00  0.00     0.199 A 
ATOM     19  H5  UNL     1      11.863 -13.153  22.371  1.00  0.00     0.185 HD
HETATM   20  N6  UNL     1      10.926 -10.959  24.565  1.00  0.00    -0.341 N 
HETATM   21  C13 UNL     1      11.738  -9.946  24.212  1.00  0.00     0.094 A 
ATOM     22  H6  UNL     1      10.278 -10.832  25.342  1.00  0.00     0.167 HD
HETATM   23  C14 UNL     1      11.643  -8.683  24.984  1.00  0.00     0.089 C 
HETATM   24  N7  UNL     1      12.596 -10.116  23.179  1.00  0.00    -0.181 N 
ATOM     25  H7  UNL     1      13.212  -9.349  22.910  1.00  0.00     0.185 HD
ENDBRANCH  14  16
ENDBRANCH  13  14
ENDBRANCH  12  13
ENDBRANCH  10  12
ENDBRANCH   8  10
BRANCH   9  26
HETATM   26  C16 UNL     1      18.060 -13.412  20.729  1.00  0.00     0.267 C 
HETATM   27  N8  UNL     1      19.124 -13.609  19.812  1.00  0.00    -0.057 NA
HETATM   28  O3  UNL     1      17.978 -12.257  21.218  1.00  0.00    -0.271 OA
ENDBRANCH   9  26
BRANCH   1  29
HETATM   29  C5  UNL     1      18.587 -15.578  22.758  1.00  0.00     0.006 A 
HETATM   30  C4  UNL     1      18.121 -14.951  23.912  1.00  0.00     0.015 A 
HETATM   31  C3  UNL     1      18.933 -14.767  25.016  1.00  0.00     0.040 A 
HETATM   32  C2  UNL     1      20.245 -15.194  25.024  1.00  0.00     0.104 A 
HETATM   33  C19 UNL     1      20.715 -15.814  23.890  1.00  0.00     0.135 A 
HETATM   34  C17 UNL     1      19.897 -16.004  22.770  1.00  0.00     0.113 A 
BRANCH  32  35
HETATM   35  O1  UNL     1      21.064 -15.005  26.141  1.00  0.00    -0.353 OA
HETATM   36  C1  UNL     1      20.793 -14.000  27.096  1.00  0.00     0.210 C 
ENDBRANCH  32  35
BRANCH  33  37
HETATM   37  O5  UNL     1      22.029 -16.250  23.883  1.00  0.00    -0.351 OA
HETATM   38  C20 UNL     1      22.505 -17.461  24.370  1.00  0.00     0.210 C 
ENDBRANCH  33  37
BRANCH  34  39
HETATM   39  O4  UNL     1      20.423 -16.637  21.660  1.00  0.00    -0.352 OA
HETATM   40  C18 UNL     1      20.447 -17.992  21.381  1.00  0.00     0.210 C 
ENDBRANCH  34  39
ENDBRANCH   1  29
TORSDOF 10
ENDMDL
MODEL 2
REMARK VINA RESULT: -8.034408350      3.110      7.701
REMARK  10 active torsions:
REMARK  status: ('A' for Active; 'I' for Inactive)
REMARK    1  A    between atoms: O1_2  and  C2_3 
REMARK    2  A    between atoms: C5_6  and  C6_7 
REMARK    3  A    between atoms: C8_14  and  N3_15 
REMARK    4  A    between atoms: N3_15  and  C9_17 
REMARK    5  A    between atoms: C9_17  and  C10_18 
REMARK    6  A    between atoms: C10_18  and  N4_19 
REMARK    7  A    between atoms: N4_19  and  C11_21 
REMARK    8  A    between atoms: C15_31  and  C16_32 
REMARK    9  A    between atoms: C17_35  and  O4_36 
REMARK   10  A    between atoms: C19_38  and  O5_39 
ROOT
HETATM    1  C6  UNL     1      14.225 -13.124  19.756  1.00  0.00     0.164 A 
HETATM    2  N1  UNL     1      14.129 -12.426  18.512  1.00  0.00    -0.330 N 
ATOM      3  H1  UNL     1      13.213 -12.099  18.207  1.00  0.00     0.165 HD
HETATM    4  C7  UNL     1      15.253 -12.167  17.681  1.00  0.00     0.322 A 
HETATM    5  O2  UNL     1      15.089 -11.551  16.602  1.00  0.00    -0.247 OA
HETATM    6  N2  UNL     1      16.539 -12.630  18.123  1.00  0.00    -0.294 N 
ATOM      7  H2  UNL     1      17.368 -12.461  17.553  1.00  0.00     0.172 HD
HETATM    8  C8  UNL     1      16.650 -13.321  19.355  1.00  0.00     0.118 A 
HETATM    9  C15 UNL     1      15.587 -13.559  20.124  1.00  0.00     0.078 A 
ENDROOT
BRANCH   8  10
HETATM   10  N3  UNL     1      17.936 -13.769  19.792  1.00  0.00    -0.374 N 
ATOM     11  H3  UNL     1      18.199 -14.732  19.578  1.00  0.00     0.161 HD
BRANCH  10  12
HETATM   12  C9  UNL     1      18.878 -12.969  20.507  1.00  0.00     0.141 C 
BRANCH  12  13
HETATM   13  C10 UNL     1      20.174 -13.703  20.748  1.00  0.00     0.157 C 
BRANCH  13  14
HETATM   14  N4  UNL     1      19.886 -14.966  21.421  1.00  0.00    -0.224 N 
ATOM     15  H4  UNL     1      19.932 -15.844  20.903  1.00  0.00     0.177 HD
BRANCH  14  16
HETATM   16  C11 UNL     1      19.542 -14.966  22.800  1.00  0.00     0.680 A 
HETATM   17  N5  UNL     1      18.432 -15.591  23.216  1.00  0.00    -0.188 N 
HETATM   18  C12 UNL     1      18.048 -15.628  24.520  1.00  0.00     0.199 A 
ATOM     19  H5  UNL     1      17.848 -16.061  22.524  1.00  0.00     0.185 HD
HETATM   20  N6  UNL     1      18.841 -14.996  25.420  1.00  0.00    -0.341 N 
HETATM   21  C13 UNL     1      19.962 -14.359  25.038  1.00  0.00     0.094 A 
ATOM     22  H6  UNL     1      18.581 -15.004  26.406  1.00  0.00     0.167 HD
HETATM   23  C14 UNL     1      20.770 -13.693  26.089  1.00  0.00     0.089 C 
HETATM   24  N7  UNL     1      20.304 -14.349  23.729  1.00  0.00    -0.181 N 
ATOM     25  H7  UNL     1      21.154 -13.866  23.438  1.00  0.00     0.185 HD
ENDBRANCH  14  16
ENDBRANCH  13  14
ENDBRANCH  12  13
ENDBRANCH  10  12
ENDBRANCH   8  10
BRANCH   9  26
HETATM   26  C16 UNL     1      15.769 -14.285  21.362  1.00  0.00     0.267 C 
HETATM   27  N8  UNL     1      15.738 -15.701  21.432  1.00  0.00    -0.057 NA
HETATM   28  O3  UNL     1      15.966 -13.696  22.456  1.00  0.00    -0.271 OA
ENDBRANCH   9  26
BRANCH   1  29
HETATM   29  C5  UNL     1      13.532 -12.342  20.809  1.00  0.00     0.006 A 
HETATM   30  C4  UNL     1      14.025 -11.083  21.149  1.00  0.00     0.015 A 
HETATM   31  C3  UNL     1      13.429 -10.311  22.129  1.00  0.00     0.040 A 
HETATM   32  C2  UNL     1      12.319 -10.753  22.818  1.00  0.00     0.104 A 
HETATM   33  C19 UNL     1      11.824 -11.994  22.491  1.00  0.00     0.135 A 
HETATM   34  C17 UNL     1      12.423 -12.779  21.499  1.00  0.00     0.113 A 
BRANCH  32  35
HETATM   35  O1  UNL     1      11.720  -9.971  23.810  1.00  0.00    -0.353 OA
HETATM   36  C1  UNL     1      12.437  -8.961  24.489  1.00  0.00     0.210 C 
ENDBRANCH  32  35
BRANCH  33  37
HETATM   37  O5  UNL     1      10.710 -12.452  23.173  1.00  0.00    -0.351 OA
HETATM   38  C20 UNL     1      10.617 -12.705  24.536  1.00  0.00     0.210 C 
ENDBRANCH  33  37
BRANCH  34  39
HETATM   39  O4  UNL     1      11.880 -14.017  21.210  1.00  0.00    -0.352 OA
HETATM   40  C18 UNL     1      12.251 -15.251  21.714  1.00  0.00     0.210 C 
ENDBRANCH  34  39
ENDBRANCH   1  29
TORSDOF 10
ENDMDL
MODEL 3
REMARK VINA RESULT: -7.751045642      1.977      2.823
REMARK  10 active torsions:
REMARK  status: ('A' for Active; 'I' for Inactive)
REMARK    1  A    between atoms: O1_2  and  C2_3 
REMARK    2  A    between atoms: C5_6  and  C6_7 
REMARK    3  A    between atoms: C8_14  and  N3_15 
REMARK    4  A    between atoms: N3_15  and  C9_17 
REMARK    5  A    between atoms: C9_17  and  C10_18 
REMARK    6  A    between atoms: C10_18  and  N4_19 
REMARK    7  A    between atoms: N4_19  and  C11_21 
REMARK    8  A    between atoms: C15_31  and  C16_32 
REMARK    9  A    between atoms: C17_35  and  O4_36 
REMARK   10  A    between atoms: C19_38  and  O5_39 
ROOT
HETATM    1  C6  UNL     1      17.744 -16.676  21.355  1.00  0.00     0.164 A 
HETATM    2  N1  UNL     1      17.923 -18.094  21.315  1.00  0.00    -0.330 N 
ATOM      3  H1  UNL     1      18.857 -18.462  21.133  1.00  0.00     0.165 HD
HETATM    4  C7  UNL     1      16.860 -19.015  21.518  1.00  0.00     0.322 A 
HETATM    5  O2  UNL     1      17.094 -20.244  21.466  1.00  0.00    -0.247 OA
HETATM    6  N2  UNL     1      15.550 -18.484  21.778  1.00  0.00    -0.294 N 
ATOM      7  H2  UNL     1      14.763 -19.114  21.930  1.00  0.00     0.172 HD
HETATM    8  C8  UNL     1      15.358 -17.082  21.822  1.00  0.00     0.118 A 
HETATM    9  C15 UNL     1      16.365 -16.229  21.628  1.00  0.00     0.078 A 
ENDROOT
BRANCH   8  10
HETATM   10  N3  UNL     1      14.052 -16.562  22.091  1.00  0.00    -0.374 N 
ATOM     11  H3  UNL     1      13.891 -16.140  23.006  1.00  0.00     0.161 HD
BRANCH  10  12
HETATM   12  C9  UNL     1      12.959 -16.591  21.173  1.00  0.00     0.141 C 
BRANCH  12  13
HETATM   13  C10 UNL     1      12.252 -15.261  21.095  1.00  0.00     0.157 C 
BRANCH  13  14
HETATM   14  N4  UNL     1      12.333 -14.602  22.395  1.00  0.00    -0.224 N 
ATOM     15  H4  UNL     1      12.265 -15.151  23.252  1.00  0.00     0.177 HD
BRANCH  14  16
HETATM   16  C11 UNL     1      12.507 -13.193  22.460  1.00  0.00     0.680 A 
HETATM   17  N5  UNL     1      13.386 -12.585  21.651  1.00  0.00    -0.188 N 
HETATM   18  C12 UNL     1      13.599 -11.242  21.665  1.00  0.00     0.199 A 
ATOM     19  H5  UNL     1      13.919 -13.155  20.995  1.00  0.00     0.185 HD
HETATM   20  N6  UNL     1      12.878 -10.507  22.547  1.00  0.00    -0.341 N 
HETATM   21  C13 UNL     1      11.987 -11.083  23.374  1.00  0.00     0.094 A 
ATOM     22  H6  UNL     1      13.013  -9.497  22.584  1.00  0.00     0.167 HD
HETATM   23  C14 UNL     1      11.242 -10.204  24.308  1.00  0.00     0.089 C 
HETATM   24  N7  UNL     1      11.809 -12.424  23.325  1.00  0.00    -0.181 N 
ATOM     25  H7  UNL     1      11.134 -12.863  23.951  1.00  0.00     0.185 HD
ENDBRANCH  14  16
ENDBRANCH  13  14
ENDBRANCH  12  13
ENDBRANCH  10  12
ENDBRANCH   8  10
BRANCH   9  26
HETATM   26  C16 UNL     1      16.095 -14.809  21.670  1.00  0.00     0.267 C 
HETATM   27  N8  UNL     1      15.848 -14.039  20.505  1.00  0.00    -0.057 NA
HETATM   28  O3  UNL     1      16.066 -14.169  22.753  1.00  0.00    -0.271 OA
ENDBRANCH   9  26
BRANCH   1  29
HETATM   29  C5  UNL     1      18.765 -16.081  22.252  1.00  0.00     0.006 A 
HETATM   30  C4  UNL     1      19.566 -15.048  21.771  1.00  0.00     0.015 A 
HETATM   31  C3  UNL     1      20.541 -14.460  22.555  1.00  0.00     0.040 A 
HETATM   32  C2  UNL     1      20.767 -14.872  23.853  1.00  0.00     0.104 A 
HETATM   33  C19 UNL     1      19.981 -15.890  24.338  1.00  0.00     0.135 A 
HETATM   34  C17 UNL     1      18.992 -16.489  23.549  1.00  0.00     0.113 A 
BRANCH  32  35
HETATM   35  O1  UNL     1      21.755 -14.276  24.643  1.00  0.00    -0.353 OA
HETATM   36  C1  UNL     1      23.128 -14.504  24.406  1.00  0.00     0.210 C 
ENDBRANCH  32  35
BRANCH  33  37
HETATM   37  O5  UNL     1      20.194 -16.315  25.639  1.00  0.00    -0.351 OA
HETATM   38  C20 UNL     1      21.047 -17.332  26.051  1.00  0.00     0.210 C 
ENDBRANCH  33  37
BRANCH  34  39
HETATM   39  O4  UNL     1      18.231 -17.506  24.091  1.00  0.00    -0.352 OA
HETATM   40  C18 UNL     1      17.197 -17.405  25.006  1.00  0.00     0.210 C 
ENDBRANCH  34  39
ENDBRANCH   1  29
TORSDOF 10
ENDMDL
MODEL 4
REMARK VINA RESULT: -7.715533509      2.089      2.932
REMARK  10 active torsions:
REMARK  status: ('A' for Active; 'I' for Inactive)
REMARK    1  A    between atoms: O1_2  and  C2_3 
REMARK    2  A    between atoms: C5_6  and  C6_7 
REMARK    3  A    between atoms: C8_14  and  N3_15 
REMARK    4  A    between atoms: N3_15  and  C9_17 
REMARK    5  A    between atoms: C9_17  and  C10_18 
REMARK    6  A    between atoms: C10_18  and  N4_19 
REMARK    7  A    between atoms: N4_19  and  C11_21 
REMARK    8  A    between atoms: C15_31  and  C16_32 
REMARK    9  A    between atoms: C17_35  and  O4_36 
REMARK   10  A    between atoms: C19_38  and  O5_39 
ROOT
HETATM    1  C6  UNL     1      18.248 -16.196  21.799  1.00  0.00     0.164 A 
HETATM    2  N1  UNL     1      18.586 -17.558  21.523  1.00  0.00    -0.330 N 
ATOM      3  H1  UNL     1      19.522 -17.885  21.761  1.00  0.00     0.165 HD
HETATM    4  C7  UNL     1      17.676 -18.476  20.932  1.00  0.00     0.322 A 
HETATM    5  O2  UNL     1      18.046 -19.654  20.719  1.00  0.00    -0.247 OA
HETATM    6  N2  UNL     1      16.359 -18.005  20.605  1.00  0.00    -0.294 N 
ATOM      7  H2  UNL     1      15.680 -18.636  20.181  1.00  0.00     0.172 HD
HETATM    8  C8  UNL     1      16.010 -16.659  20.875  1.00  0.00     0.118 A 
HETATM    9  C15 UNL     1      16.874 -15.806  21.427  1.00  0.00     0.078 A 
ENDROOT
BRANCH   8  10
HETATM   10  N3  UNL     1      14.693 -16.200  20.555  1.00  0.00    -0.374 N 
ATOM     11  H3  UNL     1      14.611 -15.402  19.924  1.00  0.00     0.161 HD
BRANCH  10  12
HETATM   12  C9  UNL     1      13.486 -16.777  21.053  1.00  0.00     0.141 C 
BRANCH  12  13
HETATM   13  C10 UNL     1      12.400 -15.745  21.236  1.00  0.00     0.157 C 
BRANCH  13  14
HETATM   14  N4  UNL     1      12.659 -14.995  22.460  1.00  0.00    -0.224 N 
ATOM     15  H4  UNL     1      12.864 -15.487  23.330  1.00  0.00     0.177 HD
BRANCH  14  16
HETATM   16  C11 UNL     1      12.625 -13.574  22.435  1.00  0.00     0.680 A 
HETATM   17  N5  UNL     1      13.375 -12.898  21.554  1.00  0.00    -0.188 N 
HETATM   18  C12 UNL     1      13.387 -11.540  21.479  1.00  0.00     0.199 A 
ATOM     19  H5  UNL     1      13.963 -13.426  20.909  1.00  0.00     0.185 HD
HETATM   20  N6  UNL     1      12.597 -10.863  22.348  1.00  0.00    -0.341 N 
HETATM   21  C13 UNL     1      11.831 -11.508  23.246  1.00  0.00     0.094 A 
ATOM     22  H6  UNL     1      12.582  -9.844  22.320  1.00  0.00     0.167 HD
HETATM   23  C14 UNL     1      10.997 -10.688  24.159  1.00  0.00     0.089 C 
HETATM   24  N7  UNL     1      11.851 -12.861  23.283  1.00  0.00    -0.181 N 
ATOM     25  H7  UNL     1      11.272 -13.351  23.964  1.00  0.00     0.185 HD
ENDBRANCH  14  16
ENDBRANCH  13  14
ENDBRANCH  12  13
ENDBRANCH  10  12
ENDBRANCH   8  10
BRANCH   9  26
HETATM   26  C16 UNL     1      16.456 -14.441  21.660  1.00  0.00     0.267 C 
HETATM   27  N8  UNL     1      16.658 -13.405  20.713  1.00  0.00    -0.057 NA
HETATM   28  O3  UNL     1      15.887 -14.092  22.726  1.00  0.00    -0.271 OA
ENDBRANCH   9  26
BRANCH   1  29
HETATM   29  C5  UNL     1      18.611 -15.878  23.202  1.00  0.00     0.006 A 
HETATM   30  C4  UNL     1      19.353 -14.728  23.463  1.00  0.00     0.015 A 
HETATM   31  C3  UNL     1      19.731 -14.384  24.747  1.00  0.00     0.040 A 
HETATM   32  C2  UNL     1      19.392 -15.167  25.832  1.00  0.00     0.104 A 
HETATM   33  C19 UNL     1      18.659 -16.304  25.586  1.00  0.00     0.135 A 
HETATM   34  C17 UNL     1      18.273 -16.657  24.288  1.00  0.00     0.113 A 
BRANCH  32  35
HETATM   35  O1  UNL     1      19.777 -14.817  27.129  1.00  0.00    -0.353 OA
HETATM   36  C1  UNL     1      20.877 -13.964  27.370  1.00  0.00     0.210 C 
ENDBRANCH  32  35
BRANCH  33  37
HETATM   37  O5  UNL     1      18.310 -17.100  26.663  1.00  0.00    -0.351 OA
HETATM   38  C20 UNL     1      19.029 -18.178  27.166  1.00  0.00     0.210 C 
ENDBRANCH  33  37
BRANCH  34  39
HETATM   39  O4  UNL     1      17.535 -17.810  24.101  1.00  0.00    -0.352 OA
HETATM   40  C18 UNL     1      16.187 -18.008  24.340  1.00  0.00     0.210 C 
ENDBRANCH  34  39
ENDBRANCH   1  29
TORSDOF 10
ENDMDL
MODEL 5
REMARK VINA RESULT: -7.611628878      1.898      2.236
REMARK  10 active torsions:
REMARK  status: ('A' for Active; 'I' for Inactive)
REMARK    1  A    between atoms: O1_2  and  C2_3 
REMARK    2  A    between atoms: C5_6  and  C6_7 
REMARK    3  A    between atoms: C8_14  and  N3_15 
REMARK    4  A    between atoms: N3_15  and  C9_17 
REMARK    5  A    between atoms: C9_17  and  C10_18 
REMARK    6  A    between atoms: C10_18  and  N4_19 
REMARK    7  A    between atoms: N4_19  and  C11_21 
REMARK    8  A    between atoms: C15_31  and  C16_32 
REMARK    9  A    between atoms: C17_35  and  O4_36 
REMARK   10  A    between atoms: C19_38  and  O5_39 
ROOT
HETATM    1  C6  UNL     1      17.919 -15.626  21.443  1.00  0.00     0.164 A 
HETATM    2  N1  UNL     1      17.906 -17.024  21.145  1.00  0.00    -0.330 N 
ATOM      3  H1  UNL     1      18.742 -17.572  21.344  1.00  0.00     0.165 HD
HETATM    4  C7  UNL     1      16.780 -17.685  20.583  1.00  0.00     0.322 A 
HETATM    5  O2  UNL     1      16.845 -18.913  20.346  1.00  0.00    -0.247 OA
HETATM    6  N2  UNL     1      15.606 -16.902  20.310  1.00  0.00    -0.294 N 
ATOM      7  H2  UNL     1      14.779 -17.342  19.907  1.00  0.00     0.172 HD
HETATM    8  C8  UNL     1      15.604 -15.516  20.602  1.00  0.00     0.118 A 
HETATM    9  C15 UNL     1      16.669 -14.908  21.128  1.00  0.00     0.078 A 
ENDROOT
BRANCH   8  10
HETATM   10  N3  UNL     1      14.428 -14.746  20.336  1.00  0.00    -0.374 N 
ATOM     11  H3  UNL     1      14.495 -14.008  19.636  1.00  0.00     0.161 HD
BRANCH  10  12
HETATM   12  C9  UNL     1      13.167 -14.936  20.980  1.00  0.00     0.141 C 
BRANCH  12  13
HETATM   13  C10 UNL     1      12.251 -13.754  20.786  1.00  0.00     0.157 C 
BRANCH  13  14
HETATM   14  N4  UNL     1      12.825 -12.593  21.458  1.00  0.00    -0.224 N 
ATOM     15  H4  UNL     1      13.684 -12.169  21.106  1.00  0.00     0.177 HD
BRANCH  14  16
HETATM   16  C11 UNL     1      12.182 -12.054  22.606  1.00  0.00     0.680 A 
HETATM   17  N5  UNL     1      11.340 -12.812  23.323  1.00  0.00    -0.188 N 
HETATM   18  C12 UNL     1      10.694 -12.357  24.429  1.00  0.00     0.199 A 
ATOM     19  H5  UNL     1      11.175 -13.773  23.024  1.00  0.00     0.185 HD
HETATM   20  N6  UNL     1      10.930 -11.075  24.804  1.00  0.00    -0.341 N 
HETATM   21  C13 UNL     1      11.769 -10.286  24.109  1.00  0.00     0.094 A 
ATOM     22  H6  UNL     1      10.461 -10.702  25.629  1.00  0.00     0.167 HD
HETATM   23  C14 UNL     1      11.968  -8.897  24.589  1.00  0.00     0.089 C 
HETATM   24  N7  UNL     1      12.389 -10.783  23.014  1.00  0.00    -0.181 N 
ATOM     25  H7  UNL     1      13.026 -10.186  22.486  1.00  0.00     0.185 HD
ENDBRANCH  14  16
ENDBRANCH  13  14
ENDBRANCH  12  13
ENDBRANCH  10  12
ENDBRANCH   8  10
BRANCH   9  26
HETATM   26  C16 UNL     1      16.604 -13.487  21.386  1.00  0.00     0.267 C 
HETATM   27  N8  UNL     1      17.475 -12.554  20.767  1.00  0.00    -0.057 NA
HETATM   28  O3  UNL     1      15.766 -12.993  22.183  1.00  0.00    -0.271 OA
ENDBRANCH   9  26
BRANCH   1  29
HETATM   29  C5  UNL     1      18.398 -15.428  22.833  1.00  0.00     0.006 A 
HETATM   30  C4  UNL     1      19.477 -14.576  23.061  1.00  0.00     0.015 A 
HETATM   31  C3  UNL     1      19.975 -14.360  24.332  1.00  0.00     0.040 A 
HETATM   32  C2  UNL     1      19.428 -14.981  25.436  1.00  0.00     0.104 A 
HETATM   33  C19 UNL     1      18.363 -15.825  25.222  1.00  0.00     0.135 A 
HETATM   34  C17 UNL     1      17.854 -16.047  23.938  1.00  0.00     0.113 A 
BRANCH  32  35
HETATM   35  O1  UNL     1      19.936 -14.762  26.720  1.00  0.00    -0.353 OA
HETATM   36  C1  UNL     1      20.821 -13.696  26.993  1.00  0.00     0.210 C 
ENDBRANCH  32  35
BRANCH  33  37
HETATM   37  O5  UNL     1      17.802 -16.456  26.320  1.00  0.00    -0.351 OA
HETATM   38  C20 UNL     1      18.356 -17.502  27.048  1.00  0.00     0.210 C 
ENDBRANCH  33  37
BRANCH  34  39
HETATM   39  O4  UNL     1      16.780 -16.902  23.785  1.00  0.00    -0.352 OA
HETATM   40  C18 UNL     1      16.738 -18.268  24.006  1.00  0.00     0.210 C 
ENDBRANCH  34  39
ENDBRANCH   1  29
TORSDOF 10
ENDMDL
